DIST ls-dyna_smp_d_R13_1_0_centos79_intel190.tar.gz_extractor.sh 127414064 BLAKE2B d965b9181535278192440ae5795dd5cd136ffdb7bd99b241afdab78dcde33ee834e7d81e9ed6e0d6a8a9002b4112d85d52c41cb5d7a4a13bdb7a63c2d8b8699b SHA512 26e3cf66daaa4d8a17b66475fa0f02da5fcd19653c35aa8aeb710631705005d263f6348df6b34349a7479ecd80f2dfc6bff28d5b6ce9e5ff8f7e8a225fbc415c
DIST ls-dyna_smp_s_R13_1_0_centos79_intel190.tar.gz_extractor.sh 104813899 BLAKE2B 47a3f425aef131b178ccb3208d6a91da51036e995dd3064b910b4949a11eacbdc9ff9ff1b3ad5c0ffae5ec2b46f3a565a29ebab4c88a4b6b93d12a1cc51f1a7c SHA512 308c61eb33d2dac40225b93dd763002560c4574a58a83e1b22961757904e47215322f5733c36239b5bf39dea57f662efea3927d3f020537ac53fdb12c00e0597
EBUILD ls-dyna-bin-13.1.0.ebuild 1577 BLAKE2B b2e2fae378fd4fdbc2eb548e92c90185f4cd65508e9b6f498826755be6dfadcafa3b5e5e9e4b82477486d222709d83e667932d23cf5bbd2eeaa2d1785d2889ee SHA512 3543dc72c362e2071042889617bcf7ef403dcf4da5fbc4630b320311117e7dcae749c6bd858f6ee5cdacdb00b9bfc4e8b5a9d9ef875e4a6318d4965d9e860711
MISC metadata.xml 302 BLAKE2B 702c9c159fd252687c6529a1d3a374ea8fef59665e0618fbd29cb396f1b72c1838ce66c30a5a2160f190dc2f6e977b5bfd428d9e3e271650ce43cc7bdfda35d2 SHA512 664d88155a383ffd496b0e2b8c0642f17c393eb95af04be60533994cb50f37a74b45edc1d8be6999ffb0e2540551af5143f3477e894401d3d8081fac7275f509
