AUX ls-dyna_mpp_d_R13_1_0_x64_centos78_ifort190_avx2_intelmpi-2018-Makefile.patch 1930 BLAKE2B ddfbeb84c52f960ce33929567d8268bbd6bb6fd99489d2386bae270bf5ac5026b0e8899f713ea2cfbb3249a938ddf78116df320025da61b2bda09045fd880c3a SHA512 a3f2844e408025ccfdfcc3ee49a2ecfd8a7ecb4b3be8fe264723533076d5f7331247e8f0cd1e581a206b61e078b23aa5e47fbfd802d52465a1613ee2a1a238db
AUX ls-dyna_mpp_d_R13_1_0_x64_centos78_ifort190_avx512_intelmpi-2018-Makefile.patch 1930 BLAKE2B 5869f106eb4ca9728e63af43e0278c4de6f872dced9f107b1144665b59042484af156902f02f3c71e4253a3d894a34a97493aa4106ced0ea7e6b4acc7f4e8e72 SHA512 c0c3c1f75f9de9adb83c7bbd39ef38d5b02f9df194c3f5e38d672c23edc092377dff5d13cd01aea0e2264e82eaadcb151ea1697bbbc2011e4d6f6ad05cf38239
AUX ls-dyna_mpp_d_R13_1_0_x64_centos78_ifort190_sse2_intelmpi-2018-Makefile.patch 1930 BLAKE2B 2a68b478862146fa0975c12a2c392f03934406dfca65bfe74049a1f426f4cb378cd003243fa181e9104cd0cffbfdbf24985a1680bf88aadc06bd3f339239f3cd SHA512 ec0b2334e679723e8344615f519c2d1bdcb81fb666e745eb216dd817ec42b583f10e747f3779605fe3a7391bae0e703665c3823950851a4d63d8f4777e90e6aa
AUX ls-dyna_mpp_s_R13_1_0_x64_centos78_ifort190_avx2_intelmpi-2018-Makefile.patch 1207 BLAKE2B d60903c37fc725095a1eded20a2b9a8e639fc2d40553676386d342d6ea246004fc0a7392e3481dbb8fbec95f1f50bf36693a1a902a3dc65104929a5e174f14a8 SHA512 19fbb70ac06d88dbff7d5f5635e5e7bcad33d73d254be2dd756b34a5aa144652f07f196e2258601997a8acb49f954db90061685942229986f6609aac364f7894
AUX ls-dyna_mpp_s_R13_1_0_x64_centos78_ifort190_avx512_intelmpi-2018-Makefile.patch 1178 BLAKE2B a0bab22a88ad06ef34861e02eb10e8d53c2a6fccca7805b285c86bf8a92219108958a6d616e187916d6419bbb34b9f1f788cbbec17e3aa20bbcd4b0bf4670fb2 SHA512 bced442a7b0d20e50380e111f71c0d544d93092eab6b57054931c82069a4f74483475d73d23f28de54b5815632d5b10718e3d8ca9882d3bc467874ec2a3b6bdf
AUX ls-dyna_mpp_s_R13_1_0_x64_centos78_ifort190_sse2_intelmpi-2018-Makefile.patch 1207 BLAKE2B b8ee66e3759fd284d06e4d93221aa7bbca119830f72243ecca95a6a4dbb5c54e22d32a8e6c6ed1cf4587669dc7e8290a5ee34aa31aea8282454e206d4c880172 SHA512 d3b252f5d3fcdbb2aee18e3b610e3009220fd3807b953cb1c0b3f79ce2237dad2612d1b4b2e325af5fca9c8fd35cc020575c5c3f51d6f0a4ed66a2978e613204
DIST ls-dyna_mpp_d_R13_1_0_x64_centos78_ifort190_avx2_intelmpi-2018.usermat.tar.gz_extractor.sh 366796996 BLAKE2B e6d07408bec86f604b2334bc29c7996a25c74a0debd263989c980feec09ad2f00e9cfd9beb8236af60bc2ebedd6c3edfe14d40c9a848585d8c5a28ae4c1b210e SHA512 e86a43c836b48a38c7cf7de4478e429516e16728a1545c6f14956a10cd539b9aaece683591c5143f109b37d242a5b24fe65aa7d34d95ee1315c067486a9b625c
DIST ls-dyna_mpp_d_R13_1_0_x64_centos78_ifort190_avx512_intelmpi-2018.usermat.tar.gz_extractor.sh 374077159 BLAKE2B c9212906dff6fd8f6fbfc766718082054e567ff98f546a955c6e24e58c33574de62e522afeb3715fabf42fd9e7244850a635a68a87de32dc898800ba00425159 SHA512 e3863dc1b59492fe9824ac11e1a890d2e12b1bf8f09a9360399a8430b473876910bc3f4092026958b92b0a6f0d1f4876f3e125efb862c4dcb3bc40246a49b5af
DIST ls-dyna_mpp_d_R13_1_0_x64_centos78_ifort190_sse2_intelmpi-2018.usermat.tar.gz_extractor.sh 364152809 BLAKE2B 0bde30284bfbde8e2f3f2b9e3384157fe1121926dad772eae8fa5c4a8b713a83ae67c1cb61bd0cdbbe801c189002e339ab640e1685b550621252f894e9638cf0 SHA512 ac918d338b2063cb56c77262aa73250502324e8737080e61c456345f14c774904435ab41b066048f1b270383b08db95db08559114fc0063f34fe9f311e74395e
DIST ls-dyna_mpp_s_R13_1_0_x64_centos78_ifort190_avx2_intelmpi-2018.usermat.tar.gz_extractor.sh 107165251 BLAKE2B 79568e9eae103846ca4e99c1945cb0ce7cd5f8c5cc8614b9f7446e1ab6cbc3052c78f9c94333b1c56d45452d682ebbf74662422d2f767b1052d54b188c305565 SHA512 449c69fb838c3e811df99726addabf8d5a0a6f9d1ad6031a66cc054533db27e121490607299a2b34ebeff7d9586bb569a0a85d9d19db9a558a4b226fca45a960
DIST ls-dyna_mpp_s_R13_1_0_x64_centos78_ifort190_avx512_intelmpi-2018.usermat.tar.gz_extractor.sh 112167045 BLAKE2B 02a6616e5b493997806475c5f4f0125c365a427b09a6995d06d0a71ce31caff8ab3d8a37da96442117945bb5502feb812890cb5ffad90a4da852e0da2a9752d4 SHA512 53cd0354fd1e4c84fbbcad5a9598b4e68a381917be496b6d1d38d02bcd15676a83da445f485e12b8bb2ca01c280118051f25d8e55445fa2c50574bdcf897eb33
DIST ls-dyna_mpp_s_R13_1_0_x64_centos78_ifort190_sse2_intelmpi-2018.usermat.tar.gz_extractor.sh 103070064 BLAKE2B 5e075486dc162e55c9638c440952b1dc604bd24b2e362e55e2bf46eae952d041dd6d18b919ab75d255a7749087265a95aa0279c7bd40007768eeb62a538bf133 SHA512 3f0de0df8c1561765a48ce21830f80b89d30a7de6a2434304e9c1775a0c33affd7e8b4545cb8c3505227a914800d21c98020db1a29762218a1faa495f81a0467
EBUILD mpp-dyna-13.1.0.ebuild 2739 BLAKE2B 94a39dfa6b0e6f3b3fd038b0a62c0f7fc6e5c4211dd0d54c7965365cfdfffd6941207ccaa38843bcd93b2464fa612bc186ac6382f10625f8b3b152c50c4049ea SHA512 57ea68d58df4c1a3abe14663a23d160149d58832bb40b9163dc13226e3433e02b48a2613e61f0eca3c211a1ea26bc20aae80aa4e9562d82aeaf3e2f804e33ace
MISC metadata.xml 302 BLAKE2B a186a2a78da44c358b9998ad6775026765ae5139b9991cadd38c83735672b792ef81d007fcbafa1d258803ba3f30b52a29c7a5c1f7b414499ecbb76e816c54ab SHA512 a3dd18abf641e29a5a3961657c4fed1b911816506fafb9fce26704718203f297eba97957baca3bfb80e67ce7af0b1dfe1aac93913c45e289ca13aff53fd1eadf
