DIST ls-dyna_mpp_d_R12_1_0_x64_centos78_ifort160_avx2_intelmpi-2018.tgz_extractor.sh 122040335 BLAKE2B 2220f77031215d5681afa1fc5cbfdda525e46650604134e67e419cc07b6453b6ea73ee5e0d042394c4627a1b4e16fc0c778226251d0ea9e60503808c3a1fd74e SHA512 de43e82ad012fc96fe7d97820ef127b8913c762fb59cb8370b197333cc37456b8999e380f3bdb5bd045902e113abafe69b2f071580cf31a8396f9aa1a24779d4
DIST ls-dyna_mpp_d_R12_1_0_x64_centos78_ifort160_avx512_intelmpi-2018.tgz_extractor.sh 133736491 BLAKE2B 5249145be56043287b4161fbb27945a5df63f41eb3fe8aa152367b95bcbcdad34def645f26024d7df721b8f91f35e94aecb5c32b7e536ebb6fb22b285b163f26 SHA512 73711107084c119d47164739f095cd840ba801cdee2679e11cdf58db03c0b7a8329077870b1ff8be1857008d3d42ebfc5adbff8768440740036fa1fe5cdff952
DIST ls-dyna_mpp_d_R12_1_0_x64_centos78_ifort160_sse2_intelmpi-2018.tgz_extractor.sh 122668930 BLAKE2B 16fd7088c163f03d0c6f88025ba3d6248dae33209d12939d104a4e9e28a74410816ac7a6b8a32a1fd8edfd832a04299b31f0993374b4f79880dd1333dffe9535 SHA512 d110f7daa5164f642ed22c1655b18382b0afe4dbaa877fa4fa04c7b150328bad2feed16cb28e76de097f631845cbe14f41b68d7e7cb1e549bd4289b75dd23947
DIST ls-dyna_mpp_d_R13_1_0_x64_centos78_ifort190_avx2_intelmpi-2018.tgz_extractor.sh 128003225 BLAKE2B 8bc1158f013c5d7af7495fc109d5fb482a178bb074d525ccd5848e5a540bf74a87f2125ee356b5c5b97f5b332aadaaecfa12889bc4e8fec17b5e282b1d27b617 SHA512 ad4e643fed024ae6fa0ef519e76cce2483e11e80f20d743a4320cae74d3781957c275aabd6ce95d6b643a89dd5849ac00ee193b5d44426f16f954d8af35b2acd
DIST ls-dyna_mpp_d_R13_1_0_x64_centos78_ifort190_avx512_intelmpi-2018.tgz_extractor.sh 133850674 BLAKE2B d2e654d50c661bb2c4a001399046879548225f8751a563a95dee0aaaf1f18d4f22de848627dadfdc029ba8bc59eb846d154851d752b944798b66914e71778266 SHA512 6d3b89d14775d7bc809fdc1f2527265013e6c30ac849bbfcff17f94f4b3d1a2186ef59de1926611af4507e2e5cce45392407b0b843db6423b58534a482a5016e
DIST ls-dyna_mpp_d_R13_1_0_x64_centos78_ifort190_sse2_intelmpi-2018.tgz_extractor.sh 126233043 BLAKE2B b2fce432efde808c569dc930fb573c2acd1c656a2d7fb343aeaefd0a0bb871b933855a5d69f4c79ed0d07bddbd0dc70e9da4dec95151f391f0bda5c365d238ac SHA512 65ae7de5d7331af85faf67c7610500a18f4aed25859f935c159f7780c7b959f0ce9bc9acc9128a93b86f9476f78c0351708f76ee80fe57fb88abcf6d0119847a
DIST ls-dyna_mpp_d_R13_1_1_x64_centos78_ifort190_avx2_intelmpi-2018.tgz_extractor.sh 131541233 BLAKE2B 566a7adafb7ff5857a7a32ece9d4886b071fd6dece75c6b9e7157bade7411b3b1e312716171246191d005118d4674c3776b1c87bab856d90948839d1f9a8558d SHA512 853fe242942dc1cd617fdcc84a5246fd8730e02bd4c3c5ebe54214fcd552c6c245dcb2ce6daf086d6a4e421cf799edb385207fe164c08e41212f7dd6cfc4a386
DIST ls-dyna_mpp_d_R13_1_1_x64_centos78_ifort190_avx512_intelmpi-2018.tgz_extractor.sh 137397661 BLAKE2B c1d4a790e0080270385214d3888f8a49bf1b503da3d12ead5c99ac34922cf57a872f90a3e7e0d7972293af984e59ea11fc066ec23662e6339f0c467a27d77eac SHA512 78a53ac359b9d66b6cd618fa4f254de6e0159effb66c813dd2ead63288017913ac7cfd8fbcb6bdbd4e05a4422c7ad6eed5ca6fcb7ed6c32ba600082bd89cc222
DIST ls-dyna_mpp_d_R13_1_1_x64_centos78_ifort190_sse2_intelmpi-2018.tgz_extractor.sh 129773030 BLAKE2B 57bad8fe45df1a69cb41f4d902e431786bec918a51d0749903912523030853558644a9a555ac934965260f952e12fda43cd0449df0d68f6902568217cafc6a6a SHA512 9274af1a7e4d9e590206af1f1c5999df365353f87c8c32f1c4d0b123183a3004646cde43fe4626a8fb2aa9eae20e88365e921e00638df27d7570ac551a86f783
EBUILD mpp-dyna-12.1.0.ebuild 1614 BLAKE2B 664b75f7d050b689975f7ebee24f8f45e137c51dc45d05d834876e1dbe40183a2d2f0f88ed4743c144b9677e8f1e424ef67cedd3d672f0cc3d5731beca2224c9 SHA512 f4f8090987e669c562d22ce98e4ae85870bd8bd28031b1ccc38db62fd0785ad633c200894a011499290a83ab3520e03f2f2cf9e293addfc51bc5550115caabbf
EBUILD mpp-dyna-13.1.0.ebuild 1614 BLAKE2B 474ebc845a691e4b3a8bfcd5885b01b44ac735a59aba87e6952e65e297c8009818fe5225d6257e33adde3ba7b1f19a91d00db3bdc9bd597aac4b95e206a8b64c SHA512 75abbfc44ace64e41744c643020b92e1c9ebaa1aa96e7a7cf101f61cba2f1d4c5146eff6be286753881e8b6b405a3f1f580a29ef312481f84b4b9b3d2b415c21
EBUILD mpp-dyna-13.1.1.ebuild 1614 BLAKE2B 474ebc845a691e4b3a8bfcd5885b01b44ac735a59aba87e6952e65e297c8009818fe5225d6257e33adde3ba7b1f19a91d00db3bdc9bd597aac4b95e206a8b64c SHA512 75abbfc44ace64e41744c643020b92e1c9ebaa1aa96e7a7cf101f61cba2f1d4c5146eff6be286753881e8b6b405a3f1f580a29ef312481f84b4b9b3d2b415c21
MISC metadata.xml 139 BLAKE2B b4a59c22790dfec3fbcfaea41ef363401766736b68a85bedae00e1944d0a848aa97104c2f34244c0fe7b6363029281f965fc1b3545301d341cda371eaa976274 SHA512 8be912ace7468a4396eb1da00a9785030a8ce35da4357a01591876a1056fd45e44da65de2af3e1eb0506ce6551714962c40c3ae5a3aefa2ad231de35af2519be
