DIST ls-dyna_mpp_d_R13_0_0_x64_centos610_ifort190_avx2_openmpi4.0.0.tgz_extractor.sh 127685446 BLAKE2B ded53cc8059c8cba82427a59be009392c42ce031d2dbc4ad22928c13dadb4debf7e6fca9cb730149fec1395f68fcbcecc4402e7fb9bf7a866ef162f669abeddc SHA512 23c3b3458a2a41dfe0a024373ae6d0691426d96b3d9091762b5f18769c132fac463c9ac58f145d09858d9bb82706b583a8abdf6074e91dac28b9d5e210739c10
DIST ls-dyna_mpp_d_R13_0_0_x64_centos610_ifort190_avx512_openmpi4.0.0.tgz_extractor.sh 133364819 BLAKE2B 3373b70d6fdbf23190ca40d8328057acfd20de8a5e07ef509586cc6d6e424acb4ba991d5813773fbd50e33287410f088c4a467d6fea25b1714e3a37d6ab28063 SHA512 32573884bffdd7d8e0eec9af7360d3c48af417f8f5011043838600176fd43366591783e685eba769fa497139e4a33e17ab73083747c083dbb8d1a7c2f135fed3
DIST ls-dyna_mpp_d_R13_0_0_x64_centos610_ifort190_sse2_openmpi4.0.0.tgz_extractor.sh 125941222 BLAKE2B ec5ea62a3e7ce952ef53947c7523c2d60d4981fa1812a4ef07b11275d2df4d915dab2d9ac914d901788d076a1d0478bd37c0e709991e52452bae84c193582438 SHA512 614f7e7c074737ab5e0cc47c4cb85989b236a62167920dac7afa45c04e2dd85120c5dec7cf5acb38071700e6ef89f201e2e3032fea139c6049b366630a0ffd8b
DIST ls-dyna_mpp_s_R13_0_0_x64_centos610_ifort190_avx2_openmpi4.0.0.tgz_extractor.sh 90724244 BLAKE2B 8e39f450f038d903ae2e1f35529e7e7903849ca55bcb252276444b8d3312caeefbb8927cece2b013cb707c3292f1db8e83a2b047b9bde271f41ac8407487464d SHA512 ae4bd1a96b3ede4db085eb4be5221f273000c939553e066556259e675c805da00f327ea345ef45160286e5a1dd75746686cbd931c7e7ae8c2a83e280043cf334
DIST ls-dyna_mpp_s_R13_0_0_x64_centos610_ifort190_avx512_openmpi4.0.0.tgz_extractor.sh 94832719 BLAKE2B b4fc82b9e038bfd1c61621bcf36b92182da9fc2ef65edb76ffc8dd408d16ddaf7694b5fa9e1fa272e9b1a16b45e68d2f9e067f13d83c1893b9f52944613d53c6 SHA512 eebab4d0fa85d24b30597935569bb5034a2344cdc6c6471da951a3b4a0a9430ee1ebbd07972c7a715d771412757b75cc507acc25a5c6d76ee592ff6357bf06ad
DIST ls-dyna_mpp_s_R13_0_0_x64_centos610_ifort190_sse2_openmpi4.0.0.tgz_extractor.sh 87383359 BLAKE2B 3811be31bb0d37373d31303adb8e9f6c3cc4b73b009ff6e75974b92e5e60620b0ff5383b85e49cd7a64a636bf00510a73ee1223c609cf5b4a214a4f8416bc7a7 SHA512 e0ee030ad14fcc983c6a13897ecda7fae59a6613a563062bc0adbbf4f519199691db520b8469c9a982b9cb472a314eee159665e51206bedabfeb94f02b67210b
EBUILD mpp-dyna-13.0.0.ebuild 2853 BLAKE2B 1abb560a17d8f41fb38e7bbef69e8a32585e21451a4b4a26ed1bc112f86c5ffd21b4760ef13a30906724991cc55e976b58d17a885629292e07c1a1bcaf18f102 SHA512 91d92285f4e09a691c101e67aa70f39144a8ce3adbc211b4349cf59495226599f1756e45d25dd1e40fc15f1a616c334203a6c329a441e073206f8ccf119bf7fa
MISC metadata.xml 302 BLAKE2B 702c9c159fd252687c6529a1d3a374ea8fef59665e0618fbd29cb396f1b72c1838ce66c30a5a2160f190dc2f6e977b5bfd428d9e3e271650ce43cc7bdfda35d2 SHA512 664d88155a383ffd496b0e2b8c0642f17c393eb95af04be60533994cb50f37a74b45edc1d8be6999ffb0e2540551af5143f3477e894401d3d8081fac7275f509
