DIST ls-dyna_mpp_d_R13_1_0_x64_centos78_ifort190_avx2_intelmpi-2018.tgz_extractor.sh 128003225 BLAKE2B 8bc1158f013c5d7af7495fc109d5fb482a178bb074d525ccd5848e5a540bf74a87f2125ee356b5c5b97f5b332aadaaecfa12889bc4e8fec17b5e282b1d27b617 SHA512 ad4e643fed024ae6fa0ef519e76cce2483e11e80f20d743a4320cae74d3781957c275aabd6ce95d6b643a89dd5849ac00ee193b5d44426f16f954d8af35b2acd
DIST ls-dyna_mpp_d_R13_1_0_x64_centos78_ifort190_avx512_intelmpi-2018.tgz_extractor.sh 133850674 BLAKE2B d2e654d50c661bb2c4a001399046879548225f8751a563a95dee0aaaf1f18d4f22de848627dadfdc029ba8bc59eb846d154851d752b944798b66914e71778266 SHA512 6d3b89d14775d7bc809fdc1f2527265013e6c30ac849bbfcff17f94f4b3d1a2186ef59de1926611af4507e2e5cce45392407b0b843db6423b58534a482a5016e
DIST ls-dyna_mpp_d_R13_1_0_x64_centos78_ifort190_sse2_intelmpi-2018.tgz_extractor.sh 126233043 BLAKE2B b2fce432efde808c569dc930fb573c2acd1c656a2d7fb343aeaefd0a0bb871b933855a5d69f4c79ed0d07bddbd0dc70e9da4dec95151f391f0bda5c365d238ac SHA512 65ae7de5d7331af85faf67c7610500a18f4aed25859f935c159f7780c7b959f0ce9bc9acc9128a93b86f9476f78c0351708f76ee80fe57fb88abcf6d0119847a
DIST ls-dyna_mpp_d_R13_1_1_x64_centos78_ifort190_avx2_intelmpi-2018.tgz_extractor.sh 131541233 BLAKE2B 566a7adafb7ff5857a7a32ece9d4886b071fd6dece75c6b9e7157bade7411b3b1e312716171246191d005118d4674c3776b1c87bab856d90948839d1f9a8558d SHA512 853fe242942dc1cd617fdcc84a5246fd8730e02bd4c3c5ebe54214fcd552c6c245dcb2ce6daf086d6a4e421cf799edb385207fe164c08e41212f7dd6cfc4a386
DIST ls-dyna_mpp_d_R13_1_1_x64_centos78_ifort190_avx512_intelmpi-2018.tgz_extractor.sh 137397661 BLAKE2B c1d4a790e0080270385214d3888f8a49bf1b503da3d12ead5c99ac34922cf57a872f90a3e7e0d7972293af984e59ea11fc066ec23662e6339f0c467a27d77eac SHA512 78a53ac359b9d66b6cd618fa4f254de6e0159effb66c813dd2ead63288017913ac7cfd8fbcb6bdbd4e05a4422c7ad6eed5ca6fcb7ed6c32ba600082bd89cc222
DIST ls-dyna_mpp_d_R13_1_1_x64_centos78_ifort190_sse2_intelmpi-2018.tgz_extractor.sh 129773030 BLAKE2B 57bad8fe45df1a69cb41f4d902e431786bec918a51d0749903912523030853558644a9a555ac934965260f952e12fda43cd0449df0d68f6902568217cafc6a6a SHA512 9274af1a7e4d9e590206af1f1c5999df365353f87c8c32f1c4d0b123183a3004646cde43fe4626a8fb2aa9eae20e88365e921e00638df27d7570ac551a86f783
DIST ls-dyna_mpp_s_R13_1_0_x64_centos78_ifort190_avx2_intelmpi-2018.tgz_extractor.sh 91151585 BLAKE2B c7a9d9d6e4e0a579af0da7f46b9bc9613d4d54da7d910df69d3a6612e8946138846cb81b0ff2a64c1358d084ddd89d32fcabd1488a8cbfe0d880c26e1cc0366f SHA512 9e8e5c3bb357c062e097bcc4ce69411e773abe8bce1515c7f55df8f296babdbf8c36a459070c9405b326e1ef44e7487f170bae590d73273e8f1f1fd3faf88997
DIST ls-dyna_mpp_s_R13_1_0_x64_centos78_ifort190_avx512_intelmpi-2018.tgz_extractor.sh 95425998 BLAKE2B 6d0ff824294bdc662f85123d64b9eb9dbac52d08e67f5e289449ea16bfd5bb88b22e3b212ab1006a10d240d5d7fac3f48730957c5982b1265c65215ce805a214 SHA512 601e321e5080195a5190b861011665595634aa3acf533139e25b773e0eabec090192ffa7a9ec95e9885e7afaf59d8a5b3572258b05b98221066ecf665d149fab
DIST ls-dyna_mpp_s_R13_1_0_x64_centos78_ifort190_sse2_intelmpi-2018.tgz_extractor.sh 87695118 BLAKE2B abbc3d477d5eaa48c1def2e3051f63f31b05c7d893f1dc74143cd6c79c6f05569cb9847a580d21e0286aba9f533b9b5269a243397e2e9d80bac704bbf0910780 SHA512 7e3af16ea7f98e80ee5df0fca48cc64f792d059fbe2237709379ef74318a4c3f31d994b0c4502f63fbf8027473cd019d56854590c5ff78c07a9b41a083eeadb5
DIST ls-dyna_mpp_s_R13_1_1_x64_centos78_ifort190_avx2_intelmpi-2018.tgz_extractor.sh 94699414 BLAKE2B 4aaf78f88dc5f8987fbf9e46115457c41d66b9a14e9b4bb83e3c4491884a5df0c43d0f38870c17a9facbcdd28916e2ef024fe2364ee0d0202b4c175246834100 SHA512 0fc2cfae6368cc1cd83d8d8040d79acbbbb0733ff6ee1d3d1e3d5437c3d41ecccfedf707866abd806bbd189dd471ee90b9f6a492254f37e952625be14bdf7a54
DIST ls-dyna_mpp_s_R13_1_1_x64_centos78_ifort190_avx512_intelmpi-2018.tgz_extractor.sh 98966928 BLAKE2B 4b43f3734ac0e36c856ed800ec7dbdc61601c90bdce8b64afe04a9d6f72aab949efc53ab65ed7f82720b616da88bc2a84789addb5af088d1fbd5b6ed6dfd7d3e SHA512 4592e271eda5c5442819fd3af488889987e5339c0dbbe19710ee2992d8805eeef3bb5f604c3d9ac39b6aa2527ae97d29b82301fc9d75a58d48bd2d6f4909f407
DIST ls-dyna_mpp_s_R13_1_1_x64_centos78_ifort190_sse2_intelmpi-2018.tgz_extractor.sh 91232289 BLAKE2B db10259edc239689039ef5fe22766f8b40243aee062c4165f889e23016038528af48f18818472dabc3c6d3c91d096e9e4d64f5f4c22b2445aad29f08fc59be81 SHA512 1d8f56f33b754f20c42eb0606877175f489b879d3309967a3f569a402c0d3c9117eaccd9b9abbec2353a66a390d43035aa11d7e90b164ef2aaca5f8ca49c4542
EBUILD mpp-dyna-13.1.0.ebuild 2540 BLAKE2B 54df30d09c389c39755f278e62749470275d1b1fa6e34e96da033d23f1dccaf722681356572ca2c8fbbf1ef3a99015ef590fdc38bab204c4f3c3bf9486b2653e SHA512 0a3426a676459ef44eddbe30d5b9f70372fb6ceaa143527c44cb6e2bda1d5bf596f1d7676c99173571e9e3b0dfc3c019cfa8fb43251ddcb5f81727c7bd040a9e
EBUILD mpp-dyna-13.1.1.ebuild 2540 BLAKE2B 54df30d09c389c39755f278e62749470275d1b1fa6e34e96da033d23f1dccaf722681356572ca2c8fbbf1ef3a99015ef590fdc38bab204c4f3c3bf9486b2653e SHA512 0a3426a676459ef44eddbe30d5b9f70372fb6ceaa143527c44cb6e2bda1d5bf596f1d7676c99173571e9e3b0dfc3c019cfa8fb43251ddcb5f81727c7bd040a9e
MISC metadata.xml 302 BLAKE2B a186a2a78da44c358b9998ad6775026765ae5139b9991cadd38c83735672b792ef81d007fcbafa1d258803ba3f30b52a29c7a5c1f7b414499ecbb76e816c54ab SHA512 a3dd18abf641e29a5a3961657c4fed1b911816506fafb9fce26704718203f297eba97957baca3bfb80e67ce7af0b1dfe1aac93913c45e289ca13aff53fd1eadf
