DIST ls-dyna_mpp_d_R11_0_0_x64_centos65_ifort160_avx2_intelmpi-413.tar.gz_extractor.sh 89836167 BLAKE2B 75eabc9dac5b8c03a24a181e33178695e51ed8efbf1c5d2932d638446f7288b4899520f981dc81c6e419d6bc691a4e3246557f8dfb6e93db0ec8ab464800d4ce SHA512 865272461a90fae97868a4eabc6d801665f36ee7af33449ab0b969f3d920678b254fcbdf8459b4d5b5d50d8eee801780ae4c9502808be1311f8915a4f2c702fd
DIST ls-dyna_mpp_d_R11_0_0_x64_centos65_ifort160_avx512_intelmpi-413.tar.gz_extractor.sh 100253764 BLAKE2B 8bfaf53aebd06b866e1a54e9b6be2716a165faf5b7dc5e98fe3975a9323721b5d4d06f24b49c9ae5263079fa41b4992739821f260bdeac831c8c7a9b86f74777 SHA512 2695bc62944f9bfe9357946a5f46893533541c2f3010874a6268573541c0de9a68f1cce4b0e438621a0fe29df917049df48009ef7062066a107e22c00d1c085d
DIST ls-dyna_mpp_d_R11_0_0_x64_centos65_ifort160_sse2_intelmpi-413.tar.gz_extractor.sh 90477605 BLAKE2B 18c2f35019c90035551d60fa5abbe00cda348c67963c212589b5c0e08bde50c740a53cae6d624b832e3e17d7ad6ba6cebec71cbb85bd1ed559d2584b78ab45df SHA512 a3a95e028ecb906817d8c2d26795e53765afa9ac921640c85e3aa2d2883fd02a21cd6c4d7b6ac7648b8771cafecd3d183d32100679578e84fadfbd702592aeab
DIST ls-dyna_mpp_d_R11_1_0_x64_centos65_ifort160_avx2_intelmpi-2018.tar.gz_extractor.sh 100200807 BLAKE2B 492e726513bbc642924c1d92af561140ee52379f68686f9e40526f120ddd96777f833d0ca1c88da867303e7e17879b0bd91f2ef0d5842eefc3d5e77454d8f7e4 SHA512 6ad65baaa5a949c23e0569b83afbd9df964bec8e8e799ae8206d0d56c2e03f4b0e153cd296ef0b5ff1d5a96db0fdc9439e02917778173727b5b02bd104df0aa4
DIST ls-dyna_mpp_d_R11_1_0_x64_centos65_ifort160_avx512_intelmpi-2018.tar.gz_extractor.sh 111107451 BLAKE2B fc9726ab518f48e77863a3b5177448c5cef1eb916f5d3f7bab46dfd5feaaddbf91750ae5f00cbc8c34b582a7eb32f0a9139d81959efa05d9e7d37910c5c2d94a SHA512 159c77920283d530f5bec4c393361b989927d221ac8e1f33092084f6033103179392cc4a13297c92dead3381a39340ff23beead9a0b88464c847b12c8da102c7
DIST ls-dyna_mpp_d_R11_1_0_x64_centos65_ifort160_sse2_intelmpi-2018.tar.gz_extractor.sh 100718514 BLAKE2B ce56b799ab4af10d14caeb6056fbcc87d227bf5ebe84d7c55f1016a27416e60054422363a5606d6eb814011ce411d2d57934c0ac3043aeca1207036ef07cc4de SHA512 c9e49298e15ff7d30840b632b8951cf5e1fccc3ffc4ba64e5cedb8ecdb5b6d857e8ce742f63d4afbb8786bd48bf0caa11f73afb1835e2b8f0060cc9ffe0e20fe
DIST ls-dyna_mpp_d_R11_2_0_x64_centos610_ifort160_avx2_intelmpi-2018.tgz_extractor.sh 108583754 BLAKE2B 6359e8169a7d4e30dbd99cea6242344c0c3a3069b8a2b27be6fe38a66f28e0c4731061ae98184b91e8b6199ec950dba6cc4734dae5fc21f1b418d30bbd88e8a0 SHA512 e05ba0eeeca2818b8ee5bd7dfa284e15abb901c0edbadc24d93676c0b8ed4f991a6af3ae85530af11936cd5dea71309476fdc6408bbb39a48b7de41c24ad4734
DIST ls-dyna_mpp_d_R11_2_0_x64_centos610_ifort160_avx512_intelmpi-2018.tgz_extractor.sh 118835407 BLAKE2B 164b532fdfb1e0d1d165f927005e52543a7dfc3b99fdba5185f2d896fcc20cc689fbbe3c9c80d7ad5066b03a3c36efe5dea3a8926db3226a5bfdfa46f61f4eab SHA512 eeed3c224153571ac5cbc2ee8425c8216d1fc2eb1af98d6c000b04ee5a5e4a042aa7b2a5350cabcb781b1357d20fa831c353de83a921f42df0d17b8e21334b3d
DIST ls-dyna_mpp_d_R11_2_0_x64_centos610_ifort160_sse2_intelmpi-2018.tgz_extractor.sh 109230159 BLAKE2B 4b52c2270c56c0ae3955376a8460c1f847b9f0760833d91602ce07623a1910dff8dda4f4c1207464bb412574d07e6b651fe21c32957c474a5c449fa27552dcb1 SHA512 11ff39d395247db6cf55dc37e6031181d9c97e9245cde6ef340b1dd0a14c618f82091f5b0972f79b2c2fdc478b5345bf9f7ddf3db606ca582d257406fb25b2dc
DIST ls-dyna_mpp_d_R11_2_1_x64_centos610_ifort160_avx2_intelmpi-2018.tgz_extractor.sh 108595322 BLAKE2B 3a5911a233a1c6b496b338f2f8c7ce4c050279e447522fdccb02bad12cc91b4b080dddb6b4cf92d77bb1f50af43d00d43296826ab010583c1251e7e3cc47d4b0 SHA512 ec4ad7a4457b64394b4a69dcf2fa832baea6ad2c74fc99fdb32cea945e0fca9c3dcd0a5c1b7272e6032a0e69a55a74031a9d4219ef0b5b767c1069eaaaa89711
DIST ls-dyna_mpp_d_R11_2_1_x64_centos610_ifort160_avx512_intelmpi-2018.tgz_extractor.sh 118865904 BLAKE2B c225565a872e5611514bdbe88f02c17537f5e0855276c2691e1bc7ff74e7202028602b79d13e02d5b800cb645668b7744b6edc125bb80b7134c2613528ba9d8d SHA512 e78687f3caa905134e3a87ea6d903d4907a8c97445decdcb4dac0891f35aff2bcd7807998e995e99656257ea8e7add24d0c6caa2b30ff3e28d7e1e1f7c525e18
DIST ls-dyna_mpp_d_R11_2_1_x64_centos610_ifort160_sse2_intelmpi-2018.tgz_extractor.sh 109374185 BLAKE2B 9154d6f8a51b2cac4a72aff000a88b56174864417b803b3e4fa2ff96eeb28cc9b0648fca68897688e5cd360a25cd2c567d4313559f44e3c87424df45a1a5fd0e SHA512 2f3773ee4034ccd7fb5c030818b646421acbac36aad893fc17f214b761a5e73fcc3376ca98a31d469b1460a981180b1246aafc86d2600aa69c1f386be544922d
DIST ls-dyna_mpp_d_R11_2_2_x64_centos610_ifort160_avx2_intelmpi-2018.tgz_extractor.sh 109186056 BLAKE2B e61716a5632e0e0b7e66033308ed2f1d4dc00353f0809ad7e0352c2375294c8de2727c711251ef47f83de2b7d1e301fad6ef2a9d875315f043d82e34f2850250 SHA512 2122d9467601e54fcf9fadde00753e6fafee4cb9f93da8d02aad1ed60137a17b266e2581926e4ccea1e882853931573e2ff39a6fe28f706d6bde7ed1e86b6b6b
DIST ls-dyna_mpp_d_R11_2_2_x64_centos610_ifort160_avx512_intelmpi-2018.tgz_extractor.sh 119448547 BLAKE2B 2c04be7d9a11fd410bff668e6160257fadd548c81f8dc9529115c3841b8a831069dfb251a16db72d87ec46c97d0ab7772e24d249a5bbe0881373d88658723cc0 SHA512 630481c4b64e083915f978527dad96ae9d62dfef749131a2cbfdbfdf26bebf3196168e7e499ae40aca35331ddf1031c78b934135636d9313d3cfc1fab7f89d1c
DIST ls-dyna_mpp_d_R11_2_2_x64_centos610_ifort160_sse2_intelmpi-2018.tgz_extractor.sh 109954275 BLAKE2B 05a5b0a27e824b3763183fbffc43f28575dc8b8fc5eb4f0a47a2f6dc7f170432e46db2d239c7ddbfcef66ab91644c88f9192aa2cbf3c28c0fe55c7c715b15611 SHA512 3f8ba6d47e481cf85d19791bed873193e4b572df432c7503ecddc973cc47a48d574e641d891cce4f585d0761ab951f9f28e8b4343e879947caee3b006d0bb27d
DIST ls-dyna_mpp_d_R12_0_0_x64_centos65_ifort160_avx2_intelmpi-2018.gz_extractor.sh 111123033 BLAKE2B 5e9b071cad14f27db7efa405c27a7015c881f80972c8210a889da0ed01c6fb9a72445e44a51292aee3df094bcba43221c93475022cce8fb897d53f3e1d3dc1b6 SHA512 815f5a44e190a116e1327e5c182c38399567c47fa54296107378d58f2e7055fca0c9c55d6f3006b495be6dd5dd53af9e1c131f5aa6ae32344ba598f03451afaa
DIST ls-dyna_mpp_d_R12_0_0_x64_centos65_ifort160_sse2_intelmpi-2018.gz_extractor.sh 111644605 BLAKE2B 5b2931a7ab588902241bdfe042148f1d6ec41345cc7e2e5260139fc1060459314a9084c9a8c9237d7e9a983517b9470f900599e6ac925d88193232269c6e6bce SHA512 7d0c2733265818846b959a0c61a3a0b2b22bc02a882a1f76dde02bc5ca9c83b04e5a5d7e041c8388fbe4ab99dedf6197fceb9d23dfc7f9fd1f3b5de36d2eff63
DIST ls-dyna_mpp_d_R12_0_0_x64_centos65_ifort180_avx512_intelmpi-2018.gz_extractor.sh 116387793 BLAKE2B ab4e7743d719a376c97f251826318c658421a89ee0f79c1dc40b5b0742c675db90c831585f2ffbe2f3cec26b992abeda815ae8cd97421e0b2f2c12e84184159e SHA512 75cce700833799340cb67f60df22a50745cedf90ee1140f3d716b8a3efff7d0b7efd913214fa8cb480ee9c0573f643647a80bc20b814c13961974196b7b6f626
DIST ls-dyna_mpp_d_R12_1_0_x64_centos78_ifort160_avx2_intelmpi-2018.tgz_extractor.sh 122040335 BLAKE2B 2220f77031215d5681afa1fc5cbfdda525e46650604134e67e419cc07b6453b6ea73ee5e0d042394c4627a1b4e16fc0c778226251d0ea9e60503808c3a1fd74e SHA512 de43e82ad012fc96fe7d97820ef127b8913c762fb59cb8370b197333cc37456b8999e380f3bdb5bd045902e113abafe69b2f071580cf31a8396f9aa1a24779d4
DIST ls-dyna_mpp_d_R12_1_0_x64_centos78_ifort160_avx512_intelmpi-2018.tgz_extractor.sh 133736491 BLAKE2B 5249145be56043287b4161fbb27945a5df63f41eb3fe8aa152367b95bcbcdad34def645f26024d7df721b8f91f35e94aecb5c32b7e536ebb6fb22b285b163f26 SHA512 73711107084c119d47164739f095cd840ba801cdee2679e11cdf58db03c0b7a8329077870b1ff8be1857008d3d42ebfc5adbff8768440740036fa1fe5cdff952
DIST ls-dyna_mpp_d_R12_1_0_x64_centos78_ifort160_sse2_intelmpi-2018.tgz_extractor.sh 122668930 BLAKE2B 16fd7088c163f03d0c6f88025ba3d6248dae33209d12939d104a4e9e28a74410816ac7a6b8a32a1fd8edfd832a04299b31f0993374b4f79880dd1333dffe9535 SHA512 d110f7daa5164f642ed22c1655b18382b0afe4dbaa877fa4fa04c7b150328bad2feed16cb28e76de097f631845cbe14f41b68d7e7cb1e549bd4289b75dd23947
DIST ls-dyna_mpp_d_R13_0_0_x64_centos610_ifort190_avx2_intelmpi-2018.tgz_extractor.sh 127689351 BLAKE2B 5159a36bf667ad7d05bb075ec98572570356d7573448320b189e698ceab8ccd7c1b8ea5a79d2b65a71b831b5bf7d108f1a3f733fddd660fe183841887a0fa489 SHA512 147129793db7775f585da773bbea03f1ac86bd64a70b06ed1170ec9125fb3b6d4d714118966646174954f0d3e6db98efd5b40581be34be185a58c0967453e631
DIST ls-dyna_mpp_d_R13_0_0_x64_centos610_ifort190_avx512_intelmpi-2018.tgz_extractor.sh 133397702 BLAKE2B a2b9fff098a77aa180f5f36ac3fe129d38b517ba1733c8a70286e9e07317e9152838022643e67d106af9ef1ffd282a8b97b9f4cbcb11a7446cd4827731929adb SHA512 ec88edccb6766a81f4edcc560af5a6b46b44c3dbe2bcd8936588d6f20def56ea214526af2e60bb2330b8940a0b74c33bafef239f336eb2348404f70bde2544ba
DIST ls-dyna_mpp_d_R13_0_0_x64_centos610_ifort190_sse2_intelmpi-2018.tgz_extractor.sh 125942242 BLAKE2B 8d723b532f7b6178ce3c27ef02d84852129301879c80ed58fd5d7329c724531732dce9497609f47d533ee873b915a0cfac8c7c80fd95d3ead980a86b3b063772 SHA512 fd426bbad443c7503edd7fd665db90daa3c4c9d3d5614f85f0694a3084e8e2d04cde936321a1059cc7dff4cb1e0501b6fa47bbe2b666a67bc2307bec28e7a004
DIST ls-dyna_mpp_d_R13_1_0_x64_centos78_ifort190_avx2_intelmpi-2018.tgz_extractor.sh 128003225 BLAKE2B 8bc1158f013c5d7af7495fc109d5fb482a178bb074d525ccd5848e5a540bf74a87f2125ee356b5c5b97f5b332aadaaecfa12889bc4e8fec17b5e282b1d27b617 SHA512 ad4e643fed024ae6fa0ef519e76cce2483e11e80f20d743a4320cae74d3781957c275aabd6ce95d6b643a89dd5849ac00ee193b5d44426f16f954d8af35b2acd
DIST ls-dyna_mpp_d_R13_1_0_x64_centos78_ifort190_avx512_intelmpi-2018.tgz_extractor.sh 133850674 BLAKE2B d2e654d50c661bb2c4a001399046879548225f8751a563a95dee0aaaf1f18d4f22de848627dadfdc029ba8bc59eb846d154851d752b944798b66914e71778266 SHA512 6d3b89d14775d7bc809fdc1f2527265013e6c30ac849bbfcff17f94f4b3d1a2186ef59de1926611af4507e2e5cce45392407b0b843db6423b58534a482a5016e
DIST ls-dyna_mpp_d_R13_1_0_x64_centos78_ifort190_sse2_intelmpi-2018.tgz_extractor.sh 126233043 BLAKE2B b2fce432efde808c569dc930fb573c2acd1c656a2d7fb343aeaefd0a0bb871b933855a5d69f4c79ed0d07bddbd0dc70e9da4dec95151f391f0bda5c365d238ac SHA512 65ae7de5d7331af85faf67c7610500a18f4aed25859f935c159f7780c7b959f0ce9bc9acc9128a93b86f9476f78c0351708f76ee80fe57fb88abcf6d0119847a
DIST ls-dyna_mpp_d_R13_1_1_x64_centos78_ifort190_avx2_intelmpi-2018.tgz_extractor.sh 131541233 BLAKE2B 566a7adafb7ff5857a7a32ece9d4886b071fd6dece75c6b9e7157bade7411b3b1e312716171246191d005118d4674c3776b1c87bab856d90948839d1f9a8558d SHA512 853fe242942dc1cd617fdcc84a5246fd8730e02bd4c3c5ebe54214fcd552c6c245dcb2ce6daf086d6a4e421cf799edb385207fe164c08e41212f7dd6cfc4a386
DIST ls-dyna_mpp_d_R13_1_1_x64_centos78_ifort190_avx512_intelmpi-2018.tgz_extractor.sh 137397661 BLAKE2B c1d4a790e0080270385214d3888f8a49bf1b503da3d12ead5c99ac34922cf57a872f90a3e7e0d7972293af984e59ea11fc066ec23662e6339f0c467a27d77eac SHA512 78a53ac359b9d66b6cd618fa4f254de6e0159effb66c813dd2ead63288017913ac7cfd8fbcb6bdbd4e05a4422c7ad6eed5ca6fcb7ed6c32ba600082bd89cc222
DIST ls-dyna_mpp_d_R13_1_1_x64_centos78_ifort190_sse2_intelmpi-2018.tgz_extractor.sh 129773030 BLAKE2B 57bad8fe45df1a69cb41f4d902e431786bec918a51d0749903912523030853558644a9a555ac934965260f952e12fda43cd0449df0d68f6902568217cafc6a6a SHA512 9274af1a7e4d9e590206af1f1c5999df365353f87c8c32f1c4d0b123183a3004646cde43fe4626a8fb2aa9eae20e88365e921e00638df27d7570ac551a86f783
EBUILD mpp-dyna-11.0.0.ebuild 1573 BLAKE2B 95d45c361957b30bd8965200db1debe21dcd1c2e210039b1c94cf1990348b9cb6d8303a857ec866a4a5c3bd9ee24eec32772b53131f65807b3d7b92f2a6477a2 SHA512 5351695970f5e674c6c50c2d77726429dc406fca4f8e29ef3f1ef985cd0a48c03b0558124f78eaa6d897a82212c321de4964a77dc4b224a4399c588904f8a1b1
EBUILD mpp-dyna-11.1.0.ebuild 1508 BLAKE2B 4053caaddf8ea120252b7ea4d9925ca6d287ec0c41e03a31d6e1aafecfa18a5d73e7bcc37a65cdbc16494953c0f8bdd491dfc9a4bc6776fede6d4a8a29443e92 SHA512 fd18defadee9bb5182b55e3ac3469634388ccc5a4f72f9ae7da79410d5b09c5bdad582f3b9c7b4631a32aab39a244b7c9321ccfc442d174cf7076ca8dcc0e130
EBUILD mpp-dyna-11.2.0.ebuild 1644 BLAKE2B fb9021dce59facaa51e2d4ce52fc42a19980e5f8e78ee634c2ae47d08f1c048224619951158ffcc656ab8a435b323fb2090318324e76d2df5acfc7086a6d65e1 SHA512 ab82e8986f036a77abddb4ca9e244e7a2d025e54b5c10b7792b15e05e5518c5a00281fd04cfa36a12f6d9d3798df1e9cf893bbbbcc733da0bc1823e62bc85bb8
EBUILD mpp-dyna-11.2.1.ebuild 1644 BLAKE2B fb9021dce59facaa51e2d4ce52fc42a19980e5f8e78ee634c2ae47d08f1c048224619951158ffcc656ab8a435b323fb2090318324e76d2df5acfc7086a6d65e1 SHA512 ab82e8986f036a77abddb4ca9e244e7a2d025e54b5c10b7792b15e05e5518c5a00281fd04cfa36a12f6d9d3798df1e9cf893bbbbcc733da0bc1823e62bc85bb8
EBUILD mpp-dyna-11.2.2.ebuild 1644 BLAKE2B fb9021dce59facaa51e2d4ce52fc42a19980e5f8e78ee634c2ae47d08f1c048224619951158ffcc656ab8a435b323fb2090318324e76d2df5acfc7086a6d65e1 SHA512 ab82e8986f036a77abddb4ca9e244e7a2d025e54b5c10b7792b15e05e5518c5a00281fd04cfa36a12f6d9d3798df1e9cf893bbbbcc733da0bc1823e62bc85bb8
EBUILD mpp-dyna-12.0.0.ebuild 1485 BLAKE2B f7019dad638d409c5880aeb5910fd3ce458ffa5fc1ad93293f4cb78a67e7d89a13810e7716c21a6eaf93e8f920eb3ce9a783df835a86e2b8c7b5cbeefa1f77e6 SHA512 97825297827db30445cecf9b2c1f58dcd51fb45d640072e5e6eacab3ba5f16240ce789571a5c0e1c2c1ec999bd434f06bd5fb56458b60a3445358e18c2c5602c
EBUILD mpp-dyna-12.1.0.ebuild 1643 BLAKE2B f916743dbd4adec1a72d1f6583cb5a9b2b49e0bba7139175e10f2cea3f1b1a93e8b50352850032d7686789bbdb9bdbad519fd6b2a32e80072f5554ba98026597 SHA512 ac641ded8eb45b63f246c2df44e6d3ff0225bce4694455b02c6849a7152dcd6117925ce9c1ab0c346657b8aff288c764d16d0ab9d0de9c28f077b4b1117fa906
EBUILD mpp-dyna-13.0.0.ebuild 1644 BLAKE2B 6163abbf93f4b7bd0de196a9c0d96ca7bd6e379db4250fb212081641342763f45f8b9124b2a05b4cbff9320f7deb0e08b89fd2b982f4e8d711541d4789690024 SHA512 e3a608f8fa24a1805827b02b0be9ebd3e63ecfe0e4fd2e6200d69c0c2aba572f796417009cb1ac57d9b50674e5e6aeb49f20245d3f6849f5bb68f6864a7f2d0b
EBUILD mpp-dyna-13.1.0.ebuild 1643 BLAKE2B 9d08392c2c638d3af498008658fc25e5258e7b7e18b435cd8d40407b2d776380656b272740ab65182e1b795a6e5e440345f855e07d6f044dd614a710cf02c24b SHA512 5657fb86b2c03a18aa6f184a440f3b6505079dcc8e7206fc0d34a114296bb25940248aeb648e3881916917085b5923fb2b75d9ad1d8020b3c8cc6901329b3c4d
EBUILD mpp-dyna-13.1.1.ebuild 1643 BLAKE2B 9d08392c2c638d3af498008658fc25e5258e7b7e18b435cd8d40407b2d776380656b272740ab65182e1b795a6e5e440345f855e07d6f044dd614a710cf02c24b SHA512 5657fb86b2c03a18aa6f184a440f3b6505079dcc8e7206fc0d34a114296bb25940248aeb648e3881916917085b5923fb2b75d9ad1d8020b3c8cc6901329b3c4d
MISC metadata.xml 139 BLAKE2B b4a59c22790dfec3fbcfaea41ef363401766736b68a85bedae00e1944d0a848aa97104c2f34244c0fe7b6363029281f965fc1b3545301d341cda371eaa976274 SHA512 8be912ace7468a4396eb1da00a9785030a8ce35da4357a01591876a1056fd45e44da65de2af3e1eb0506ce6551714962c40c3ae5a3aefa2ad231de35af2519be
