AUX ls-dyna_mpp_d_R13_1_0_x64_centos78_ifort190_avx2_intelmpi-2018-Makefile.patch 2764 BLAKE2B 16a6c31cacebd2438209fb3d50abc046f0d00e58e0b3ee9540a210b2b91fcaa757d1607839c0b94324041cd240b714f3b9cac2fc9e3b7ae51af281b33f7fd4c0 SHA512 11a1e6726d043ac92e0f5091e6bb3be6795076bc6e16d568a4e4a4c875242e37b9b80f36285dbad0ec715d4813d8208dec32423dad56fe537213e7c0b7bc399f
AUX ls-dyna_mpp_d_R13_1_0_x64_centos78_ifort190_avx512_intelmpi-2018-Makefile.patch 2764 BLAKE2B 6d80e2c9c28a27fde13e4be73eb503978fd8bf22045d1c408ef0e78db99e9eb87703034f3bb8d8e531959f9f712126a1ee185af19de7be29f5245c960bdddd28 SHA512 54a6d1a0e2e6029611bc935308f9450e074e05211fe8fc937e8346a4542c5e6d74a3eea75c7b9e86f352980399e46908371edc6dce4d2b4c0076bd68d27da1bc
AUX ls-dyna_mpp_d_R13_1_0_x64_centos78_ifort190_sse2_intelmpi-2018-Makefile.patch 2764 BLAKE2B c6e1210e55dd227b895b499d8b99c705c3e686b57830c6841683a5e874de65533bee1c446b44600feb7e652e4b71316432c1059cc56aeee73229ca844be99245 SHA512 dc3104c1db31f7d7b769b52448092ed6b73e4b896214db0b3754bcf83e3e1dac75ba1731f966a6b14fd04791ee60f4bd336d021ffcc7be71d9fb4b9c1f57659f
AUX ls-dyna_mpp_s_R13_1_0_x64_centos78_ifort190_avx2_intelmpi-2018-Makefile.patch 2727 BLAKE2B 98e7b4fe56372d3c2a96dd534a6e9455478c7a337f36e301854b6bfd2022e5583b8f3aca21aefd596f36b4efd6616094047a3be00a7153e9420e98b15073db8d SHA512 98537976924ae8cf73f06780c180eec7994eff7559f6a325e2e737e2d05631b74b1aae59dafa01985d140ca79d8a82fcab23ea454df81d82c0c4615b03d85353
AUX ls-dyna_mpp_s_R13_1_0_x64_centos78_ifort190_avx512_intelmpi-2018-Makefile.patch 2580 BLAKE2B 8f9bc8243f53c81a23c7e03b4e4ce119a28b8caebffbc26c37a2eb7d43c86df0371db5efbefc67ed2a0454f34a245f9009f1d3d212232ef2a3c55a4437e876a4 SHA512 63c4d4ef56622d65d0219500eb1cbaca9701d92cb9e7cdac9f49d58874185459dfe7777576eb55be3cf16c490f1cf0735d6ee6e4881c02b1719cf1fa9a2468ea
AUX ls-dyna_mpp_s_R13_1_0_x64_centos78_ifort190_sse2_intelmpi-2018-Makefile.patch 2681 BLAKE2B 1dfe11d8779c591e9a32eb8c9b46e03bbbe10e0f9a30bc27ca0817a0059a12d1174ff0be9c23ea577e3ad901aa1eee1daee5fa9a3cf682136bf40ec85ffd30e3 SHA512 d30cb1cceee40c28e917d42b2d502064c2734ca30409b413b06749eecc0535717182e69ae4f6322c80b762d09625153749ee98cdafb11805f65db073cb0345e7
DIST ls-dyna_mpp_d_R13_1_0_x64_centos78_ifort190_avx2_intelmpi-2018.usermat.tar.gz_extractor.sh 366796996 BLAKE2B e6d07408bec86f604b2334bc29c7996a25c74a0debd263989c980feec09ad2f00e9cfd9beb8236af60bc2ebedd6c3edfe14d40c9a848585d8c5a28ae4c1b210e SHA512 e86a43c836b48a38c7cf7de4478e429516e16728a1545c6f14956a10cd539b9aaece683591c5143f109b37d242a5b24fe65aa7d34d95ee1315c067486a9b625c
DIST ls-dyna_mpp_d_R13_1_0_x64_centos78_ifort190_avx512_intelmpi-2018.usermat.tar.gz_extractor.sh 374077159 BLAKE2B c9212906dff6fd8f6fbfc766718082054e567ff98f546a955c6e24e58c33574de62e522afeb3715fabf42fd9e7244850a635a68a87de32dc898800ba00425159 SHA512 e3863dc1b59492fe9824ac11e1a890d2e12b1bf8f09a9360399a8430b473876910bc3f4092026958b92b0a6f0d1f4876f3e125efb862c4dcb3bc40246a49b5af
DIST ls-dyna_mpp_d_R13_1_0_x64_centos78_ifort190_sse2_intelmpi-2018.usermat.tar.gz_extractor.sh 364152809 BLAKE2B 0bde30284bfbde8e2f3f2b9e3384157fe1121926dad772eae8fa5c4a8b713a83ae67c1cb61bd0cdbbe801c189002e339ab640e1685b550621252f894e9638cf0 SHA512 ac918d338b2063cb56c77262aa73250502324e8737080e61c456345f14c774904435ab41b066048f1b270383b08db95db08559114fc0063f34fe9f311e74395e
DIST ls-dyna_mpp_s_R13_1_0_x64_centos78_ifort190_avx2_intelmpi-2018.usermat.tar.gz_extractor.sh 107165251 BLAKE2B 79568e9eae103846ca4e99c1945cb0ce7cd5f8c5cc8614b9f7446e1ab6cbc3052c78f9c94333b1c56d45452d682ebbf74662422d2f767b1052d54b188c305565 SHA512 449c69fb838c3e811df99726addabf8d5a0a6f9d1ad6031a66cc054533db27e121490607299a2b34ebeff7d9586bb569a0a85d9d19db9a558a4b226fca45a960
DIST ls-dyna_mpp_s_R13_1_0_x64_centos78_ifort190_avx512_intelmpi-2018.usermat.tar.gz_extractor.sh 112167045 BLAKE2B 02a6616e5b493997806475c5f4f0125c365a427b09a6995d06d0a71ce31caff8ab3d8a37da96442117945bb5502feb812890cb5ffad90a4da852e0da2a9752d4 SHA512 53cd0354fd1e4c84fbbcad5a9598b4e68a381917be496b6d1d38d02bcd15676a83da445f485e12b8bb2ca01c280118051f25d8e55445fa2c50574bdcf897eb33
DIST ls-dyna_mpp_s_R13_1_0_x64_centos78_ifort190_sse2_intelmpi-2018.usermat.tar.gz_extractor.sh 103070064 BLAKE2B 5e075486dc162e55c9638c440952b1dc604bd24b2e362e55e2bf46eae952d041dd6d18b919ab75d255a7749087265a95aa0279c7bd40007768eeb62a538bf133 SHA512 3f0de0df8c1561765a48ce21830f80b89d30a7de6a2434304e9c1775a0c33affd7e8b4545cb8c3505227a914800d21c98020db1a29762218a1faa495f81a0467
EBUILD mpp-dyna-13.1.0.ebuild 2747 BLAKE2B 646b774db3edf2e24ae64bc15e564b881e5e0300d76444ba9c8d9db2ab907224dcdaac4d608914879f71f79d2c7962cc8b862237bc760a5fb0a2a250476f8473 SHA512 c8d3c899aebc724c26179cb7d946f48d00bec12025ca803ab6d9d15d66a7d66ea983eb6dd405df379e833f5b715bdc731396268c771ea7831fef252bc590e0a9
MISC metadata.xml 302 BLAKE2B a186a2a78da44c358b9998ad6775026765ae5139b9991cadd38c83735672b792ef81d007fcbafa1d258803ba3f30b52a29c7a5c1f7b414499ecbb76e816c54ab SHA512 a3dd18abf641e29a5a3961657c4fed1b911816506fafb9fce26704718203f297eba97957baca3bfb80e67ce7af0b1dfe1aac93913c45e289ca13aff53fd1eadf
