DIST ls-dyna_mpp_d_R11_0_0_x64_centos65_ifort160_avx2_intelmpi-413.tar.gz_extractor.sh 89836167 BLAKE2B 75eabc9dac5b8c03a24a181e33178695e51ed8efbf1c5d2932d638446f7288b4899520f981dc81c6e419d6bc691a4e3246557f8dfb6e93db0ec8ab464800d4ce SHA512 865272461a90fae97868a4eabc6d801665f36ee7af33449ab0b969f3d920678b254fcbdf8459b4d5b5d50d8eee801780ae4c9502808be1311f8915a4f2c702fd
DIST ls-dyna_mpp_d_R11_0_0_x64_centos65_ifort160_avx512_intelmpi-413.tar.gz_extractor.sh 100253764 BLAKE2B 8bfaf53aebd06b866e1a54e9b6be2716a165faf5b7dc5e98fe3975a9323721b5d4d06f24b49c9ae5263079fa41b4992739821f260bdeac831c8c7a9b86f74777 SHA512 2695bc62944f9bfe9357946a5f46893533541c2f3010874a6268573541c0de9a68f1cce4b0e438621a0fe29df917049df48009ef7062066a107e22c00d1c085d
DIST ls-dyna_mpp_d_R11_0_0_x64_centos65_ifort160_sse2_intelmpi-413.tar.gz_extractor.sh 90477605 BLAKE2B 18c2f35019c90035551d60fa5abbe00cda348c67963c212589b5c0e08bde50c740a53cae6d624b832e3e17d7ad6ba6cebec71cbb85bd1ed559d2584b78ab45df SHA512 a3a95e028ecb906817d8c2d26795e53765afa9ac921640c85e3aa2d2883fd02a21cd6c4d7b6ac7648b8771cafecd3d183d32100679578e84fadfbd702592aeab
DIST ls-dyna_mpp_d_R11_1_0_x64_centos65_ifort160_avx2_intelmpi-2018.tar.gz_extractor.sh 100200807 BLAKE2B 492e726513bbc642924c1d92af561140ee52379f68686f9e40526f120ddd96777f833d0ca1c88da867303e7e17879b0bd91f2ef0d5842eefc3d5e77454d8f7e4 SHA512 6ad65baaa5a949c23e0569b83afbd9df964bec8e8e799ae8206d0d56c2e03f4b0e153cd296ef0b5ff1d5a96db0fdc9439e02917778173727b5b02bd104df0aa4
DIST ls-dyna_mpp_d_R11_1_0_x64_centos65_ifort160_avx512_intelmpi-2018.tar.gz_extractor.sh 111107451 BLAKE2B fc9726ab518f48e77863a3b5177448c5cef1eb916f5d3f7bab46dfd5feaaddbf91750ae5f00cbc8c34b582a7eb32f0a9139d81959efa05d9e7d37910c5c2d94a SHA512 159c77920283d530f5bec4c393361b989927d221ac8e1f33092084f6033103179392cc4a13297c92dead3381a39340ff23beead9a0b88464c847b12c8da102c7
DIST ls-dyna_mpp_d_R11_1_0_x64_centos65_ifort160_sse2_intelmpi-2018.tar.gz_extractor.sh 100718514 BLAKE2B ce56b799ab4af10d14caeb6056fbcc87d227bf5ebe84d7c55f1016a27416e60054422363a5606d6eb814011ce411d2d57934c0ac3043aeca1207036ef07cc4de SHA512 c9e49298e15ff7d30840b632b8951cf5e1fccc3ffc4ba64e5cedb8ecdb5b6d857e8ce742f63d4afbb8786bd48bf0caa11f73afb1835e2b8f0060cc9ffe0e20fe
DIST ls-dyna_mpp_d_R11_2_0_x64_centos610_ifort160_avx2_intelmpi-2018.tgz_extractor.sh 108583754 BLAKE2B 6359e8169a7d4e30dbd99cea6242344c0c3a3069b8a2b27be6fe38a66f28e0c4731061ae98184b91e8b6199ec950dba6cc4734dae5fc21f1b418d30bbd88e8a0 SHA512 e05ba0eeeca2818b8ee5bd7dfa284e15abb901c0edbadc24d93676c0b8ed4f991a6af3ae85530af11936cd5dea71309476fdc6408bbb39a48b7de41c24ad4734
DIST ls-dyna_mpp_d_R11_2_0_x64_centos610_ifort160_avx512_intelmpi-2018.tgz_extractor.sh 118835407 BLAKE2B 164b532fdfb1e0d1d165f927005e52543a7dfc3b99fdba5185f2d896fcc20cc689fbbe3c9c80d7ad5066b03a3c36efe5dea3a8926db3226a5bfdfa46f61f4eab SHA512 eeed3c224153571ac5cbc2ee8425c8216d1fc2eb1af98d6c000b04ee5a5e4a042aa7b2a5350cabcb781b1357d20fa831c353de83a921f42df0d17b8e21334b3d
DIST ls-dyna_mpp_d_R11_2_0_x64_centos610_ifort160_sse2_intelmpi-2018.tgz_extractor.sh 109230159 BLAKE2B 4b52c2270c56c0ae3955376a8460c1f847b9f0760833d91602ce07623a1910dff8dda4f4c1207464bb412574d07e6b651fe21c32957c474a5c449fa27552dcb1 SHA512 11ff39d395247db6cf55dc37e6031181d9c97e9245cde6ef340b1dd0a14c618f82091f5b0972f79b2c2fdc478b5345bf9f7ddf3db606ca582d257406fb25b2dc
DIST ls-dyna_mpp_d_R11_2_1_x64_centos610_ifort160_avx2_intelmpi-2018.tgz_extractor.sh 108595322 BLAKE2B 3a5911a233a1c6b496b338f2f8c7ce4c050279e447522fdccb02bad12cc91b4b080dddb6b4cf92d77bb1f50af43d00d43296826ab010583c1251e7e3cc47d4b0 SHA512 ec4ad7a4457b64394b4a69dcf2fa832baea6ad2c74fc99fdb32cea945e0fca9c3dcd0a5c1b7272e6032a0e69a55a74031a9d4219ef0b5b767c1069eaaaa89711
DIST ls-dyna_mpp_d_R11_2_1_x64_centos610_ifort160_avx512_intelmpi-2018.tgz_extractor.sh 118865904 BLAKE2B c225565a872e5611514bdbe88f02c17537f5e0855276c2691e1bc7ff74e7202028602b79d13e02d5b800cb645668b7744b6edc125bb80b7134c2613528ba9d8d SHA512 e78687f3caa905134e3a87ea6d903d4907a8c97445decdcb4dac0891f35aff2bcd7807998e995e99656257ea8e7add24d0c6caa2b30ff3e28d7e1e1f7c525e18
DIST ls-dyna_mpp_d_R11_2_1_x64_centos610_ifort160_sse2_intelmpi-2018.tgz_extractor.sh 109374185 BLAKE2B 9154d6f8a51b2cac4a72aff000a88b56174864417b803b3e4fa2ff96eeb28cc9b0648fca68897688e5cd360a25cd2c567d4313559f44e3c87424df45a1a5fd0e SHA512 2f3773ee4034ccd7fb5c030818b646421acbac36aad893fc17f214b761a5e73fcc3376ca98a31d469b1460a981180b1246aafc86d2600aa69c1f386be544922d
DIST ls-dyna_mpp_d_R11_2_2_x64_centos610_ifort160_avx2_intelmpi-2018.tgz_extractor.sh 109186056 BLAKE2B e61716a5632e0e0b7e66033308ed2f1d4dc00353f0809ad7e0352c2375294c8de2727c711251ef47f83de2b7d1e301fad6ef2a9d875315f043d82e34f2850250 SHA512 2122d9467601e54fcf9fadde00753e6fafee4cb9f93da8d02aad1ed60137a17b266e2581926e4ccea1e882853931573e2ff39a6fe28f706d6bde7ed1e86b6b6b
DIST ls-dyna_mpp_d_R11_2_2_x64_centos610_ifort160_avx512_intelmpi-2018.tgz_extractor.sh 119448547 BLAKE2B 2c04be7d9a11fd410bff668e6160257fadd548c81f8dc9529115c3841b8a831069dfb251a16db72d87ec46c97d0ab7772e24d249a5bbe0881373d88658723cc0 SHA512 630481c4b64e083915f978527dad96ae9d62dfef749131a2cbfdbfdf26bebf3196168e7e499ae40aca35331ddf1031c78b934135636d9313d3cfc1fab7f89d1c
DIST ls-dyna_mpp_d_R11_2_2_x64_centos610_ifort160_sse2_intelmpi-2018.tgz_extractor.sh 109954275 BLAKE2B 05a5b0a27e824b3763183fbffc43f28575dc8b8fc5eb4f0a47a2f6dc7f170432e46db2d239c7ddbfcef66ab91644c88f9192aa2cbf3c28c0fe55c7c715b15611 SHA512 3f8ba6d47e481cf85d19791bed873193e4b572df432c7503ecddc973cc47a48d574e641d891cce4f585d0761ab951f9f28e8b4343e879947caee3b006d0bb27d
DIST ls-dyna_mpp_d_R12_0_0_x64_centos65_ifort160_avx2_intelmpi-2018.gz_extractor.sh 111123033 BLAKE2B 5e9b071cad14f27db7efa405c27a7015c881f80972c8210a889da0ed01c6fb9a72445e44a51292aee3df094bcba43221c93475022cce8fb897d53f3e1d3dc1b6 SHA512 815f5a44e190a116e1327e5c182c38399567c47fa54296107378d58f2e7055fca0c9c55d6f3006b495be6dd5dd53af9e1c131f5aa6ae32344ba598f03451afaa
DIST ls-dyna_mpp_d_R12_0_0_x64_centos65_ifort160_sse2_intelmpi-2018.gz_extractor.sh 111644605 BLAKE2B 5b2931a7ab588902241bdfe042148f1d6ec41345cc7e2e5260139fc1060459314a9084c9a8c9237d7e9a983517b9470f900599e6ac925d88193232269c6e6bce SHA512 7d0c2733265818846b959a0c61a3a0b2b22bc02a882a1f76dde02bc5ca9c83b04e5a5d7e041c8388fbe4ab99dedf6197fceb9d23dfc7f9fd1f3b5de36d2eff63
DIST ls-dyna_mpp_d_R12_0_0_x64_centos65_ifort180_avx512_intelmpi-2018.gz_extractor.sh 116387793 BLAKE2B ab4e7743d719a376c97f251826318c658421a89ee0f79c1dc40b5b0742c675db90c831585f2ffbe2f3cec26b992abeda815ae8cd97421e0b2f2c12e84184159e SHA512 75cce700833799340cb67f60df22a50745cedf90ee1140f3d716b8a3efff7d0b7efd913214fa8cb480ee9c0573f643647a80bc20b814c13961974196b7b6f626
DIST ls-dyna_mpp_d_R12_1_0_x64_centos78_ifort160_avx2_intelmpi-2018.tgz_extractor.sh 122040335 BLAKE2B 2220f77031215d5681afa1fc5cbfdda525e46650604134e67e419cc07b6453b6ea73ee5e0d042394c4627a1b4e16fc0c778226251d0ea9e60503808c3a1fd74e SHA512 de43e82ad012fc96fe7d97820ef127b8913c762fb59cb8370b197333cc37456b8999e380f3bdb5bd045902e113abafe69b2f071580cf31a8396f9aa1a24779d4
DIST ls-dyna_mpp_d_R12_1_0_x64_centos78_ifort160_avx512_intelmpi-2018.tgz_extractor.sh 133736491 BLAKE2B 5249145be56043287b4161fbb27945a5df63f41eb3fe8aa152367b95bcbcdad34def645f26024d7df721b8f91f35e94aecb5c32b7e536ebb6fb22b285b163f26 SHA512 73711107084c119d47164739f095cd840ba801cdee2679e11cdf58db03c0b7a8329077870b1ff8be1857008d3d42ebfc5adbff8768440740036fa1fe5cdff952
DIST ls-dyna_mpp_d_R12_1_0_x64_centos78_ifort160_sse2_intelmpi-2018.tgz_extractor.sh 122668930 BLAKE2B 16fd7088c163f03d0c6f88025ba3d6248dae33209d12939d104a4e9e28a74410816ac7a6b8a32a1fd8edfd832a04299b31f0993374b4f79880dd1333dffe9535 SHA512 d110f7daa5164f642ed22c1655b18382b0afe4dbaa877fa4fa04c7b150328bad2feed16cb28e76de097f631845cbe14f41b68d7e7cb1e549bd4289b75dd23947
DIST ls-dyna_mpp_d_R12_2_0_x64_centos79_ifort160_avx2_intelmpi-2018.tgz_extractor.sh 116887798 BLAKE2B 486f5b06cabc408af77574d2b06db38e9b4dcd5f1de805e47537792950d79bde92cb7e584ca77dd782be1e47cd78697aca0d3310e95a28ff200170024ec2b98c SHA512 bbae16653e903ee9f6698d55d6ea5805b1da67af6315851565158569986c87c84ff43835dd00b1680740e9d9d22328a80f87ab0a995d98cc45ef82acf73d1138
DIST ls-dyna_mpp_d_R12_2_0_x64_centos79_ifort160_avx512_intelmpi-2018.tgz_extractor.sh 129710231 BLAKE2B 350d65517f6249ef55adacbca030d862f50e45aeb2a7c8a74462df35c2abb5aa214e0a5d22a1b6e971ebfe0400ca2455b4367ff7e7e682b4d44ee18beab5ae66 SHA512 40756b1ed1ec34695b2f66f7c5c67d927ccacffe353e6f2ecffcc83dfa6bbd0acdb2d459ac5fb45b10ebc396a39c5d7a0d76dfe9ff54ac218fb05d75ddac336f
DIST ls-dyna_mpp_d_R12_2_0_x64_centos79_ifort160_sse2_intelmpi-2018.tgz_extractor.sh 116667536 BLAKE2B f209462aee5cf014add607d3791929f48ab8f77c025b2b826e364d450c2dce3b208dc19cfdd5203548dfecfff0bbceefdd51b6ee81a0a664ae452035e18e76e6 SHA512 da172490d35da3f01723447a39b3c2e41447baa98b01fb16418d76afa53bbd63fdbfd3619f925d986ab9442e3d70f83238695709656880cd7831dfea70911cd5
DIST ls-dyna_mpp_d_R12_2_1_x64_centos79_ifort160_avx2_intelmpi-2018.tgz_extractor.sh 116886966 BLAKE2B d3027cc1c6d932d22c14f2e9619249d248cc8847b1c8a15b4838312843dffd05bf72137a7c32f2422e45b945e8ec1240a5b76c9d9abcac05960e1b30c7491228 SHA512 f9ea1c4a1ac691e0481d744bf16adf47fd650fc0e944921b5f0fe269f39bc43ec1f22da5e12d581cb038e74cc17b5dfe31f0c37f04125d54a89d99b917152622
DIST ls-dyna_mpp_d_R12_2_1_x64_centos79_ifort160_avx512_intelmpi-2018.tgz_extractor.sh 129709949 BLAKE2B 24f03bb5224e4085fd5dea364c70d68c9400f7def760570b8b11de3ae61a073311ba872f5e109141ea5daa1d8c3eb76520c57a56d754c965ff3544a41d1ff781 SHA512 1cb4a706d16b1658600d77028e4d4636c1574d8149f8b4edc469850b54afdca0f0c07c2e8c347d587045f9b0585c5e9e3820cd7c151dc8ec7b74f37d0e9cd9ac
DIST ls-dyna_mpp_d_R12_2_1_x64_centos79_ifort160_sse2_intelmpi-2018.tgz_extractor.sh 116666862 BLAKE2B bbaff5c3ca0366a9948e4c0cd9f63c19b77e9df596db981d29b921b4049da8bbd4524f12b73c40ae9ffcc9a56bf1e96a198e4a0dbbf7604deaf12a98c73b978f SHA512 34d4fa18b37f54c823d2bf4a4ba386ab52aaafe509b9eac7c4798a549248f3e9e09f6e9bd527e0769dd9dcab8cfada1b3b03a7e0cf4de6b5bbcf73879ecf0c83
DIST ls-dyna_mpp_d_R13_0_0_x64_centos610_ifort190_avx2_intelmpi-2018.tgz_extractor.sh 127689351 BLAKE2B 5159a36bf667ad7d05bb075ec98572570356d7573448320b189e698ceab8ccd7c1b8ea5a79d2b65a71b831b5bf7d108f1a3f733fddd660fe183841887a0fa489 SHA512 147129793db7775f585da773bbea03f1ac86bd64a70b06ed1170ec9125fb3b6d4d714118966646174954f0d3e6db98efd5b40581be34be185a58c0967453e631
DIST ls-dyna_mpp_d_R13_0_0_x64_centos610_ifort190_avx512_intelmpi-2018.tgz_extractor.sh 133397702 BLAKE2B a2b9fff098a77aa180f5f36ac3fe129d38b517ba1733c8a70286e9e07317e9152838022643e67d106af9ef1ffd282a8b97b9f4cbcb11a7446cd4827731929adb SHA512 ec88edccb6766a81f4edcc560af5a6b46b44c3dbe2bcd8936588d6f20def56ea214526af2e60bb2330b8940a0b74c33bafef239f336eb2348404f70bde2544ba
DIST ls-dyna_mpp_d_R13_0_0_x64_centos610_ifort190_sse2_intelmpi-2018.tgz_extractor.sh 125942242 BLAKE2B 8d723b532f7b6178ce3c27ef02d84852129301879c80ed58fd5d7329c724531732dce9497609f47d533ee873b915a0cfac8c7c80fd95d3ead980a86b3b063772 SHA512 fd426bbad443c7503edd7fd665db90daa3c4c9d3d5614f85f0694a3084e8e2d04cde936321a1059cc7dff4cb1e0501b6fa47bbe2b666a67bc2307bec28e7a004
DIST ls-dyna_mpp_d_R13_1_0_x64_centos78_ifort190_avx2_intelmpi-2018.tgz_extractor.sh 128003225 BLAKE2B 8bc1158f013c5d7af7495fc109d5fb482a178bb074d525ccd5848e5a540bf74a87f2125ee356b5c5b97f5b332aadaaecfa12889bc4e8fec17b5e282b1d27b617 SHA512 ad4e643fed024ae6fa0ef519e76cce2483e11e80f20d743a4320cae74d3781957c275aabd6ce95d6b643a89dd5849ac00ee193b5d44426f16f954d8af35b2acd
DIST ls-dyna_mpp_d_R13_1_0_x64_centos78_ifort190_avx512_intelmpi-2018.tgz_extractor.sh 133850674 BLAKE2B d2e654d50c661bb2c4a001399046879548225f8751a563a95dee0aaaf1f18d4f22de848627dadfdc029ba8bc59eb846d154851d752b944798b66914e71778266 SHA512 6d3b89d14775d7bc809fdc1f2527265013e6c30ac849bbfcff17f94f4b3d1a2186ef59de1926611af4507e2e5cce45392407b0b843db6423b58534a482a5016e
DIST ls-dyna_mpp_d_R13_1_0_x64_centos78_ifort190_sse2_intelmpi-2018.tgz_extractor.sh 126233043 BLAKE2B b2fce432efde808c569dc930fb573c2acd1c656a2d7fb343aeaefd0a0bb871b933855a5d69f4c79ed0d07bddbd0dc70e9da4dec95151f391f0bda5c365d238ac SHA512 65ae7de5d7331af85faf67c7610500a18f4aed25859f935c159f7780c7b959f0ce9bc9acc9128a93b86f9476f78c0351708f76ee80fe57fb88abcf6d0119847a
DIST ls-dyna_mpp_d_R13_1_1_x64_centos78_ifort190_avx2_intelmpi-2018.tgz_extractor.sh 131541233 BLAKE2B 566a7adafb7ff5857a7a32ece9d4886b071fd6dece75c6b9e7157bade7411b3b1e312716171246191d005118d4674c3776b1c87bab856d90948839d1f9a8558d SHA512 853fe242942dc1cd617fdcc84a5246fd8730e02bd4c3c5ebe54214fcd552c6c245dcb2ce6daf086d6a4e421cf799edb385207fe164c08e41212f7dd6cfc4a386
DIST ls-dyna_mpp_d_R13_1_1_x64_centos78_ifort190_avx512_intelmpi-2018.tgz_extractor.sh 137397661 BLAKE2B c1d4a790e0080270385214d3888f8a49bf1b503da3d12ead5c99ac34922cf57a872f90a3e7e0d7972293af984e59ea11fc066ec23662e6339f0c467a27d77eac SHA512 78a53ac359b9d66b6cd618fa4f254de6e0159effb66c813dd2ead63288017913ac7cfd8fbcb6bdbd4e05a4422c7ad6eed5ca6fcb7ed6c32ba600082bd89cc222
DIST ls-dyna_mpp_d_R13_1_1_x64_centos78_ifort190_sse2_intelmpi-2018.tgz_extractor.sh 129773030 BLAKE2B 57bad8fe45df1a69cb41f4d902e431786bec918a51d0749903912523030853558644a9a555ac934965260f952e12fda43cd0449df0d68f6902568217cafc6a6a SHA512 9274af1a7e4d9e590206af1f1c5999df365353f87c8c32f1c4d0b123183a3004646cde43fe4626a8fb2aa9eae20e88365e921e00638df27d7570ac551a86f783
DIST ls-dyna_mpp_d_R14_0_0_x64_centos78_ifort190_avx2_intelmpi-2018.tgz_extractor.sh 130540373 BLAKE2B f5d402dc1dd5d305c6d3eb7d1c932e09d0afeb10747eecba1037ac01517d2045ec94591452bd357984396c4715e153d2fe2c0cee3180a48ceeaf93fd26d9ad5c SHA512 ecffec6df641d4f290672f7e5927e1499bf4373a1b75e9a5ad22fd547c6c33caa5237c9ac00c61d8424aa5d990bc52eb7b1f5c9d8368ae9a7c63b286e7a2a405
DIST ls-dyna_mpp_d_R14_0_0_x64_centos78_ifort190_avx512_intelmpi-2018.tgz_extractor.sh 138439617 BLAKE2B 3a973c40a1b451a0362f47d90b768ce9ed6a4ab7066346adb06d98ce1c4b0a96e3a87c70a2cecabee74d18c62d631aca4ff4962d66ba83e62ffd2a53ca747058 SHA512 6b362a01bd75cfa379127666fcdfcd3a9c4852f2541d5e0fed9e58b0077e65ee68246c8ddb39f2f20d6a67e4bba9c2be0caf48cd76ab901e77881c3425711cd5
DIST ls-dyna_mpp_d_R14_0_0_x64_centos78_ifort190_sse2_intelmpi-2018.tgz_extractor.sh 127525395 BLAKE2B 86d37f8fe8118fdc60938cbf22db23abe7029cea42a014bb55a285ed11134d0191d99cb9d36f42d3b0b4833d7a6475a908210d644b079bcc1d2761247c24d449 SHA512 4554aad308e908583c3d0d0c822af64acdfc233e22acc924f61f96bb2ef5b7938adee32fc0937cd40d9c6eaae496cbe831656c78a45f92fec40bb483a6211b6b
EBUILD mpp-dyna-11.0.0.ebuild 1580 BLAKE2B 146ffd52f34f429da4c8b4770c27db18720ceab276c3c54dd16b86fbf0aebdcfef0dae386170646bb08078194e8153d267d4f47fd40facf1e214b70302d24783 SHA512 79f1dc7809bb17a8605eb3a54e1677567b6a5872e8159d58c775921a327f209bb685be88486c30289d4f18f661794e2847c8444b5e43b3e398670af10930f56b
EBUILD mpp-dyna-11.1.0.ebuild 1515 BLAKE2B 8484602fa6dcbf428e352daa3e09093acf4ac4fb6088d43b9757fc20b8f6fcb08c08c43f47649ce01bc5fd4fb4f3f93ff915927b8a2da44cc6d73baba4a05dc3 SHA512 f71db75fd6192f9a673920a89613bc92948f6258d3a5fd78c21c87963dfdf0ce5e7618f5e61f0200ffa3eaa124ad3478d133cc9896644eea6bab2daaa50b64ab
EBUILD mpp-dyna-11.2.0.ebuild 1651 BLAKE2B fa2cf8b2ffcdf9613720f3374195118092a7f8a99ecb44c401e3f14ea12cd47c82661e336bbd19ffeaa8a75cf08221887cd09a5725b0ae1cd6c089add1f32006 SHA512 b9d4d275f5379ca4069299b031cb0ae9dc85e87cb3a25a12c64166d12ffa88f5b12f58e467324cbf0efd1709c07524d811118d1959df2536679e07e2f2e97726
EBUILD mpp-dyna-11.2.1.ebuild 1651 BLAKE2B fa2cf8b2ffcdf9613720f3374195118092a7f8a99ecb44c401e3f14ea12cd47c82661e336bbd19ffeaa8a75cf08221887cd09a5725b0ae1cd6c089add1f32006 SHA512 b9d4d275f5379ca4069299b031cb0ae9dc85e87cb3a25a12c64166d12ffa88f5b12f58e467324cbf0efd1709c07524d811118d1959df2536679e07e2f2e97726
EBUILD mpp-dyna-11.2.2.ebuild 1651 BLAKE2B fa2cf8b2ffcdf9613720f3374195118092a7f8a99ecb44c401e3f14ea12cd47c82661e336bbd19ffeaa8a75cf08221887cd09a5725b0ae1cd6c089add1f32006 SHA512 b9d4d275f5379ca4069299b031cb0ae9dc85e87cb3a25a12c64166d12ffa88f5b12f58e467324cbf0efd1709c07524d811118d1959df2536679e07e2f2e97726
EBUILD mpp-dyna-12.0.0.ebuild 1492 BLAKE2B 964297a9371a982d46b934db799a3675087f67eca5aa5afced4dc8f1311a4450722545b5622043f8681f3b92f15b0e9480a54d859d84eee44277cf8cf53ce0e0 SHA512 0a34203c1d9005a6547bd309d4fe397c7e5055408cb6e4355dba090cd3b02c1bc83505fefdd3654348b4c4b60b5cc798ada12d7c17044869524e67ed07c91c09
EBUILD mpp-dyna-12.1.0.ebuild 1650 BLAKE2B 129c729cb9667e0e828b08963bb8be769c2f77bae768f9f0a28c0c0498e981566857318313d5f484231dec9324f35636312bb23dec26668b86e2782c40fe6d8f SHA512 95b3c2147c1906c7dbe35d4ec6be7cc9c103f4864a006bcabcdafbb2e832007da6f4ef0b96f6975221910b36ab0cd39ffee7dfccde67d41679fbd06f5baccb3f
EBUILD mpp-dyna-12.2.0.ebuild 1554 BLAKE2B f7c8a00c97fce6e9b667424e6f048c9097bc44373fdf3cd307afad5758a17502c68b1fcc1e95bc1613db603219377f658e5cf7f4dd74853218bb8b39c4b8b1ef SHA512 5ec77aca6dadf8651102b2a83d6c6b86f12286433e19771a186e2bde11f4e3fedb3529bd335fcb0c9d24850f3b672bf22d8be19ed6fbf8ee7baefaecda748bd1
EBUILD mpp-dyna-12.2.1.ebuild 1554 BLAKE2B f7c8a00c97fce6e9b667424e6f048c9097bc44373fdf3cd307afad5758a17502c68b1fcc1e95bc1613db603219377f658e5cf7f4dd74853218bb8b39c4b8b1ef SHA512 5ec77aca6dadf8651102b2a83d6c6b86f12286433e19771a186e2bde11f4e3fedb3529bd335fcb0c9d24850f3b672bf22d8be19ed6fbf8ee7baefaecda748bd1
EBUILD mpp-dyna-13.0.0.ebuild 1651 BLAKE2B 6251924dbf79df6ee286c4b801400783d79ac2a8e9bfc59c554056847fc89d326e85ec25c8c2056bc68fe5d1bf25d5f18d1fc73d88492c71df87152dd79cf189 SHA512 34ec5db77f00c4661e7051084042deb9707285bceeafa4ef7271cfd32e6bfaf62a407c87c0b6b43318d6bfc1405b2eebadf3101c8676c38181b3dc09361ee284
EBUILD mpp-dyna-13.1.0.ebuild 1650 BLAKE2B 2109d583d6eb81998cb8a687562106128ff30e30eefc468d28399fa6d0731be6cd089bfe8fe8ba1ccd2289b6c5f4ad43c903067998bbfb4fff8db6de42e41135 SHA512 fbe63ddb135d10079cff320ee79f623907f6e2ec9ae32ff8ea6316ba19cb1473d0b8d1f50d19c4d5b2648cd19555805e6c816f1772f9d4e19685047f94e13823
EBUILD mpp-dyna-13.1.1.ebuild 1650 BLAKE2B 2109d583d6eb81998cb8a687562106128ff30e30eefc468d28399fa6d0731be6cd089bfe8fe8ba1ccd2289b6c5f4ad43c903067998bbfb4fff8db6de42e41135 SHA512 fbe63ddb135d10079cff320ee79f623907f6e2ec9ae32ff8ea6316ba19cb1473d0b8d1f50d19c4d5b2648cd19555805e6c816f1772f9d4e19685047f94e13823
EBUILD mpp-dyna-14.0.0.ebuild 1589 BLAKE2B 22535816bd9338e8bf130d0e49f8094d712befff10191ca11d56df6fc2443184eb2d353bfd2d2d0a29d4e0a18cc67d93ff8b2e9082a114d632ac5423a0915672 SHA512 f407f8e73f70e81fb1e165fe961f47bf6a0302096f7c501cd31c26142d63ee54be3b0e4cb389273ff51a399bd59c722be875cf2d5a1ebd535e2f06f37771fbc3
MISC metadata.xml 139 BLAKE2B b4a59c22790dfec3fbcfaea41ef363401766736b68a85bedae00e1944d0a848aa97104c2f34244c0fe7b6363029281f965fc1b3545301d341cda371eaa976274 SHA512 8be912ace7468a4396eb1da00a9785030a8ce35da4357a01591876a1056fd45e44da65de2af3e1eb0506ce6551714962c40c3ae5a3aefa2ad231de35af2519be
