DIST ls-dyna_smp_d_R11_1_0_x64_redhat65_ifort160_sse2.gz 92510761 BLAKE2B 257bad1854b65053071ef04a6eacea239616ecb55d9f9442778d12acab75255ed4c139079b471ce2c0b756b0739b85b41d34f333e1795039934f13e7e07d5393 SHA512 82bdd0536696ffd77fa3617e599e4b8e5f9332c10a602d430f90aa7b4375b053ac5e2c0140a388080015c25f7279fea73da42f410c9902325b310c5a4bfdd5fa
DIST ls-dyna_smp_d_R11_1_0_x64_redhat65_ifort160_sse2.tgz 101322501 BLAKE2B 67124223bcd073cec7c09ac9f8dc4eaa1af35121aec83b42453a46f1db38016069093e9769c50bb02ded1c308d51cf3e36379706fd78d2db7b96709b6c8c3d04 SHA512 44029719bf191fc4aec7cfe22a106ba5ee14ce3a78ae753c269caad8237447966d46ba3f60598575bc9267506311506cbb1e1d343ad67cbc90499e5552bebaa3
DIST ls-dyna_smp_s_R11_1_0_x64_redhat65_ifort160_sse2.gz 58350461 BLAKE2B b4af722a10d60a2f00470bfdc33126f23c492a5a6a9252aca4ed03bc6fc3f6ac0336063c49896023b65df58455ae3e79c4abcb6bd7c5d3c8e5351597809728ba SHA512 9e06cf619836557b03405042e7f80b2bfe228c869d897ba4a71029dcf9a72c3b085d1017080f1c220cd88f86dd1a3b3fc9acb32e0ca9b6a4e6566584f0548122
DIST ls-dyna_smp_s_R11_1_0_x64_redhat65_ifort160_sse2.tgz 72760909 BLAKE2B ec6cfd6e2d6e1fd7276a8fbdd041e95559dc9ed559ef94e31fd7fa9cbc886fc01122e7f25147de1a5ae197099cb12904b3e4e7d8dd2e6b4d2621b6b67e09f272 SHA512 bcb1f7e3d4d253add6739f80aac90d739aa349593c75325f209918dedec436f6e640e6d173c3144a4ec338341ee0b5926b55c5a217cf4504ef11148e42fe14d5
EBUILD lsdyna-11.1.0.ebuild 1556 BLAKE2B b5b72749881fd381df80cc5cd3d03da0ac38f24c48eafdd4c209b555e14e6c95de59678f9c6e928981412869d07c87527e0ab92ce798d4398183f17da9b0553d SHA512 4c4817d7f30316530724bae4c4ea407ddfc5d3a3de02f0d78fe8e86ee6fd386792bddad18a9f7dd11f9d85bf61cc4302e0eb5ce9e6d53979c30f06988838579e
MISC metadata.xml 440 BLAKE2B f837b0fb2754bb0097993898087e8b7b13e67e36289052ef0022211030be0175c114b22732337ea2f2abc1b6901b6783c29896afdf7fd02ca8d049c56c33b7dd SHA512 3d0190af8634f779a47dd16afdf437af9af7a95ad7f187f7c167a92c62236c1b2fd029586d144ad03a165e80dc89256e0597466fdcbbcbe4fb170cf2e53a17fa
