DIST ls-dyna_smp_d_F14_0_0_x64_centos79_intel190.tgz_extractor.sh 133252500 BLAKE2B 4ba67b4d8bb3e4c32d2fe7dbe809344400e95bcfbd850770c4f1e440724f9b4bac0184fb94565009659b13e5fd4fd9e912b857bb6aeba5ed480f714d265cd07b SHA512 474e36323731744a17da7f90bc98154fbd16c52cdf6be1f700d6cc655c4e7c21dc6267ca47bc80d60f0b442629d890c406dfc36e7504f86f282775f107c4f2e6
DIST ls-dyna_smp_d_F14_0_0_x64_centos79_intel190.usermat.tgz_extractor.sh 448484131 BLAKE2B e271b6f5b0b6d3c26dfa9bc82d40b35a87e0d541912e3447111801d2788f657f9ce7689985924ecc6ea7a3aee6494260e985b3229f9d86a1d30f0d6ae4869e48 SHA512 0dd24c4856aba991228548ebb09d25a65bb780e73d123f73d11aa18d166620db4dc36d518afec3d0ddd5e8d4d012dae6ae87180890cdcf2009cd4993799ecc6b
DIST ls-dyna_smp_d_R11_2_2_x64_centos610_ifort160.tgz_extractor.sh 109678054 BLAKE2B 83667b3910cf3c45fd64925d0acc963f4ea7621258c8e85c3a488356f7c39b06d50dec555d7fbc827d13e678a2b18579b71e6b9ac5838416534a62d42d1bbb00 SHA512 40d5e7904f71436d46bc577edf47cf543f82480e798fb08153abdaaea8f2a05f0cec250897ad5a8b0b84667a4cd31e891958aeccb48dad4642834ae58fccd8f9
DIST ls-dyna_smp_d_R11_2_2_x64_centos610_ifort160.usermat.tgz_extractor.sh 284527693 BLAKE2B 062d2b6a5f3df433d052c213d02a4657e5df26dafcbcd28745452c2c90c0aba6585c090484ac77fdd7e3ec7f43a5fc651e422899e42afa86660694476e78082c SHA512 a3933342cb4a0107150bfacc9ee71b182f69850d176e5cca2ca408b1ad9331aca010ac1a04e28454e3f8cb8e9facf18d0b7454dc5c75a3f049643710453b8787
DIST ls-dyna_smp_d_R12_0_0_x64_redhat65_ifort160.gz_extractor.sh 110861512 BLAKE2B bd6fd96b39a2dc2c410fe5121741cb61ad918d308072b77ab0c0f51c10366a82c5774a3f03807e057861fc69d2769de340164b940009c9ed8071f90a83d3f2b1 SHA512 372a8020300942901a3a84b150b77f855091892872fa562cd2e86b97ac24c157ff2ca391d25404f1a084e25a36cb36a513c84d3aa54d71ec2fe871712da80c8e
DIST ls-dyna_smp_d_R12_0_0_x64_redhat65_ifort160.tgz 288464849 BLAKE2B 316d639735ca5dce90cd1aca172f0356e05f12ca97be3593bf42df014cdaaca6806f2b93ceded3240b35f705830e3321ef411fdbc4c75b077ae5e0e4e1be7e67 SHA512 b659ff457f432861649a80f358ed32f067b9ca0b6dd1526731c9992e14e67fe490ec0288ccd320da1a36a6d8ca32147c9a26b36d77a90a787ec3aafce81e5330
DIST ls-dyna_smp_d_R12_1_0_x64_centos610_ifort160.tar.gz_extractor.sh 119094756 BLAKE2B 576e29206a0ec0d1d1a1fd90a898a18c5bef51171a1b07f84aedd6b842369a99d492b6fc4aed372c5602ddf269bb31786ce258739a538b35b48c2cd6385164d1 SHA512 1328fe73e5cbe218b80a62e752b1b661fbaee14151f8314a7d0a55e25b117a33eb8fb5db6c77afe275aa4bf7c7e48cc64a7a04b0383608bf297382a319c6eca6
DIST ls-dyna_smp_d_R12_1_0_x64_centos610_ifort160.usermat.tar.gz_extractor.sh 288621643 BLAKE2B f777a1d464fcc61be4714200b95ca4f50ad59295058269b719b29bfdce105f3b81ba3bb4f64441e8102d2c60cc81f0b916ba68a0a3bb55fd4f797962b3b365c1 SHA512 2196eb39b6f2e77ae4909d079c005d2145bff06bcd6f8a205b5220325e11aa7f62eb299ce7072400a1cc3e99c6597a87a52d2713256086a195e35365a9e69645
DIST ls-dyna_smp_d_R13_0_0_x64_centos610_ifort190.tgz_extractor.sh 125773052 BLAKE2B a9a4a6bf933de8bd73348565ccdd1fb52dbf276cee6b091b31f45f0a49230cf9b6a4d22719bfbb9098fcbe33e891337ec7e307ea4cda6ea7a12db529be4c4f42 SHA512 9d81283ebde53e564924678ffd6c3212f1109ecf25f32806f1ab4cbeae8c9a1df0edc0db529d8863f45736c03df389cf9e48cd810ee3d0ca8ee269304f668e19
DIST ls-dyna_smp_d_R13_0_0_x64_centos610_ifort190.usermat.tgz_extractor.sh 378356872 BLAKE2B 5b034afca236ab60b0bf7a5cd62e959fb95fa3fb3c6015b6d0e52a8ee664789ec6a34b6efdff1449e8016069dab5764fc56ce7ca3fb304c84b29c0c0973754b1 SHA512 dd752346605b9b57a1c0f8e06b165abca2a9f8120d0765c7e723d8f89c17b70a06b8a656d91590a403de9782eb79dece99dfc57561b2f08004248d96e65d18be
DIST ls-dyna_smp_s_F14_0_0_x64_centos79_intel190.tgz_extractor.sh 106906491 BLAKE2B f2ed878019262849b4598fc3e1578f3e7d3a6e7febe274de7ff63d602d2c37a57ef3adab8d3a8c01bdacf0a07be48464aff43e39b4e0dc0ce773ad3211fd5f52 SHA512 547b38d27e4c045aa1df8ed1003bd900e60da58cfc068941bcf681599c5c284bc87efa4bfab4a31321c3a2c0b26f97e2a2e70f16b6118505713624d30b450afc
DIST ls-dyna_smp_s_F14_0_0_x64_centos79_intel190.usermat.tgz_extractor.sh 117022671 BLAKE2B eed5731857acdf6889f0b577f3a153f2bbbff586f509d07e49bcaf974e5aacd0f8a39f206e3bde18b13aaabd6b93fe3b973f2f8b8e40a52c6815a5087b09870f SHA512 72e9bf791400a8497474514cfa5a046fc723f0d586b910dea46500a69c5e2c3cc5c277f6270b13da88f949c808b25dce795aefeace267d3ef02db1a26f797326
DIST ls-dyna_smp_s_R11_2_2_x64_centos610_ifort160.tgz_extractor.sh 85175457 BLAKE2B 1531e809802b94b910bf5e0e3276af5fc51b28c11849c877fb4cec60aca5bb9a96be25ff31e01c56166e0844ab95a8499bc469993a2a84e7f6444e1239183cd8 SHA512 66ee3b7626c4f850f680fc19956a3419ec1f74702cad5d57bf29df6881eca7f00e58e538205609def529e62edaed5bab86734fd30a300f99f3b2a5342b1851fa
DIST ls-dyna_smp_s_R11_2_2_x64_centos610_ifort160.usermat.tgz_extractor.sh 239355108 BLAKE2B 29d5765faa9abdfdf49a02aec3bcd84a37f4af55ae4ad3b24ddba9192e2b809c0c5f1d23bbd4672ed8e3d98c1ad44f20656b99f1a793b758ac33ae38ce006bbb SHA512 790da6c81d6c0fd61227078d00502baee980171c29b14522750d7e76036103935993bd891f64c65d01c3708421667ccbeb70c87a0ae3c2678c8778ad5bdebe6c
DIST ls-dyna_smp_s_R12_0_0_x64_redhat65_ifort160.gz_extractor.sh 84790818 BLAKE2B 5854ed8ede74d56a920bdb831d05434a9ceb7d96943ace74faa9e87e816bd5500aa48dd136c90f900ca6626c82792bf37f03878404a8e7a971eb2d4bc43e8e35 SHA512 a738710c5b6a86fdbebbc6cb58efc278b725a66d601533cce3ee883f9d41ba4485c409b35d604767a8f7903ff5df1ee8e09bd279d81662d9158c0800116261f8
DIST ls-dyna_smp_s_R12_0_0_x64_redhat65_ifort160.tgz 95204199 BLAKE2B 072f874ef67b145aa113782c4c477fad7767f0726cfa603625860dbabcd2ed6a644d7c05416d4de052f7a5854dde6967943cff20ef3e26957f2b35e7c0bf6b1c SHA512 83bbe23aced46419a13c714b3c1af794534f23bf5f5760864d0cebed6f6c45c3ff7ef7d009653e9915fd71445b96aa65ee9f6deb1b19e96928bf6c7c38331134
DIST ls-dyna_smp_s_R12_1_0_x64_centos610_ifort160.tar.gz_extractor.sh 93206362 BLAKE2B 9e1679f63d899e3f8f5e64a9d1ee9b34eee0f2aa8f4458f00eac9ad033eb66eda59f77bd4f2e280c87348472ff1794c52bb6523a9b96c4a7b373f96364a187d7 SHA512 24f4f7733deda8aefab183b1dda386360ed54d4c02a8f12ae1b5d3a1e2e81e8578c5c721e14098f5f34c0820d3123f9c57042e613448ea8db17762d4cefd3d14
DIST ls-dyna_smp_s_R12_1_0_x64_centos610_ifort160.usermat.tar.gz_extractor.sh 93576428 BLAKE2B 33e4f5731a4b011c903bc27b2a1c150e539ecc992acba6df50ce39b1ee8432ce3741d866c4d096a9d18fab666c4d0407208bb56925d005b1cdbfcbc4a862c134 SHA512 3084722ba7fd52ce3ce93a4a418e583dab08240d88f81fc8e5359797c681148c5936893d298a7ac75daa4ebb92bfd6f78fe31a179a816efaaa9cb2118c268f24
DIST ls-dyna_smp_s_R13_0_0_x64_centos610_ifort190.tgz_extractor.sh 100787742 BLAKE2B 34d3cf9d7d378467e9ccd094c4fac84ed92ae9643824ec2bec3b42a5bd637c9adc6a5b7e0587ad3ada2ab4325b97e612b3a609ee3e2633f34eabc921a0b553e9 SHA512 ce79977a9587399a795411be7a6f417e415e1770b26cedf621052112f8a0ea8997a8a91c0b7206aff0584c6ebae7c9872a6c449b6f4450148dc69c187160d5c8
DIST ls-dyna_smp_s_R13_0_0_x64_centos610_ifort190.usermat.tgz_extractor.sh 322136436 BLAKE2B 1676cce2e7014ec0e68ea7fd8d38924c9af2e2bd79bc58a681b172b20970c5ff81396ac244fca61258c61c68d0e7b667041b7780e1c56955d2bf77b6331ee64d SHA512 b2d48ed3bb526a761a093bede3d247d1f95b79572f067be4ccbf454d8bf0314fb8e696d49d33325e143c12a27b56b0fd68a39b2d1648107df614ad66ab55f8e0
EBUILD lsdyna-11.2.2.ebuild 2049 BLAKE2B 7ae1662031ea6475dc090fa320b638409518a24fe05d584c68c377a74ac7f56fac039c19205e781b11705a040d9b96f41883dbc0b813fb938e3180fc854eb533 SHA512 4a98408da24cba6dbf5834ac02f1722b419fc766aa41ceae450fabd109e2a694d46d6f5eb3470a95c6f98742989f363d19e2aed5d368db384155fc75d4a06ceb
EBUILD lsdyna-12.0.0-r1.ebuild 1722 BLAKE2B f04e4dcd005d481c5d177e494b330ed7c7335dc0631e5d1afc9d3a28ad65b426fba5aa6390c1f6dbaba8771529666f4826720fc0f700c2f523790f82a515c149 SHA512 99850163fb78f13e4f2f0421c2132e99d600e2efc002d765e86b1225d1e69fcaa7836d091f47dd4936d359d37e7184777d860d854880df0926ef4476b19c952a
EBUILD lsdyna-12.1.0.ebuild 2052 BLAKE2B 4e9cd55f59e92f750e02cde94770ad2923d635fa46674c9e492b97fbf8b5fd833d5fa61469d6e0510169f9031d4cb02f970ce2494cfb2f211b6b5a6c9f2149bd SHA512 73fd942ff553d7206e57dd01572f29ece77a476bc960f174483d8e938675731cd24c8cbb80a5f291e6be88c0585833a556d8aeba05ec5a01329a1ccfff60201e
EBUILD lsdyna-13.0.0-r1.ebuild 2049 BLAKE2B 3a8cc5b7bb623946e9a19f62072216fd2400c70a5cd9ad2ae300997d78f2cad3a5e84158e8929e5447136049f33773ea003f3bc543ff52dff6c933bb40017a3c SHA512 7c1215418ca63dc2dc77d6c697c8a44a994793f83547bc377fa802a96b579abd8bf1f931bbd70c35519bf3791f81324ed1e8e7aa53ce2f0dc2352bcfb79c1a31
EBUILD lsdyna-14.0.0.ebuild 2047 BLAKE2B 9442404ae6c92ec906070fd130236a7ab6fd53f8857cdd67a0e1cea79ed4ab63874f29bf1165872312016c80b32e730aa9f7bc09d472a5985d78b0d2c3c7cbad SHA512 a1b41130fb0c46d9ee6bda956d72944bfc9048bd0f98c2831ec0880fcf5caa1fbd50e89925b9501d503547d26d26c5bcf42aebc6bae5be8f77aab2941e2c30a1
MISC metadata.xml 486 BLAKE2B 8e4b368a6ef418f2eeed3b2404e34af17c91074eaae8917fd0707dba3eefd6e0b8b52aa54eec8aaa89bcffee3d5a38f4c0fec7dbba565e863df88146c2015874 SHA512 c919777245fd6cf333b4a8346c8149f36b79f2eaed7902646fa8ab8fafd456dd5b2f130cd60132243ecd8507aced5b8b8e11e44eca085dcc78688ac45b04c282
