DIST ls-dyna_smp_d_R12_0_0_x64_redhat65_ifort160.gz 110800018 BLAKE2B 389c19952665e3c756007f3b189a84c23b1ed06af921cb9e65d0ae9442a0696f31e5edc818aabce98680c8a5c57a09ba86e87b5b46c2d0395df4e5567310218a SHA512 98a3b98d36c9e1a42812094adf171c1c73ea35716963de7cc751be946a71743b33ac60b34d41d963bab368e17e31099d03baae78a35f432a26c77dbe453d37dd
DIST ls-dyna_smp_d_R12_0_0_x64_redhat65_ifort160.tgz 288464849 BLAKE2B 316d639735ca5dce90cd1aca172f0356e05f12ca97be3593bf42df014cdaaca6806f2b93ceded3240b35f705830e3321ef411fdbc4c75b077ae5e0e4e1be7e67 SHA512 b659ff457f432861649a80f358ed32f067b9ca0b6dd1526731c9992e14e67fe490ec0288ccd320da1a36a6d8ca32147c9a26b36d77a90a787ec3aafce81e5330
DIST ls-dyna_smp_d_R13_0_0_x64_centos610_ifort190.tgz_extractor.sh 125773052 BLAKE2B a9a4a6bf933de8bd73348565ccdd1fb52dbf276cee6b091b31f45f0a49230cf9b6a4d22719bfbb9098fcbe33e891337ec7e307ea4cda6ea7a12db529be4c4f42 SHA512 9d81283ebde53e564924678ffd6c3212f1109ecf25f32806f1ab4cbeae8c9a1df0edc0db529d8863f45736c03df389cf9e48cd810ee3d0ca8ee269304f668e19
DIST ls-dyna_smp_d_R13_0_0_x64_centos610_ifort190.usermat.tgz_extractor.sh 378356872 BLAKE2B 5b034afca236ab60b0bf7a5cd62e959fb95fa3fb3c6015b6d0e52a8ee664789ec6a34b6efdff1449e8016069dab5764fc56ce7ca3fb304c84b29c0c0973754b1 SHA512 dd752346605b9b57a1c0f8e06b165abca2a9f8120d0765c7e723d8f89c17b70a06b8a656d91590a403de9782eb79dece99dfc57561b2f08004248d96e65d18be
DIST ls-dyna_smp_s_R12_0_0_x64_redhat65_ifort160.gz 84729516 BLAKE2B c235f2eed9fc8908a123aed859e9745e66e9908b70e788d3cc937d9abc316c4b7e2df535d823da14a962b0882223cb2430510f5930e4af8b007610b5cd4e42cd SHA512 8e42b2c42dd4bd8487e3414e5514a92a49d0096df2e5c4d21b99054f1fea7d302877b3e4c5f2028753df899e71a958a21ba77630bc8dff7daddc7f3fe3ac5593
DIST ls-dyna_smp_s_R12_0_0_x64_redhat65_ifort160.tgz 95204199 BLAKE2B 072f874ef67b145aa113782c4c477fad7767f0726cfa603625860dbabcd2ed6a644d7c05416d4de052f7a5854dde6967943cff20ef3e26957f2b35e7c0bf6b1c SHA512 83bbe23aced46419a13c714b3c1af794534f23bf5f5760864d0cebed6f6c45c3ff7ef7d009653e9915fd71445b96aa65ee9f6deb1b19e96928bf6c7c38331134
DIST ls-dyna_smp_s_R13_0_0_x64_centos610_ifort190.tgz_extractor.sh 100787742 BLAKE2B 34d3cf9d7d378467e9ccd094c4fac84ed92ae9643824ec2bec3b42a5bd637c9adc6a5b7e0587ad3ada2ab4325b97e612b3a609ee3e2633f34eabc921a0b553e9 SHA512 ce79977a9587399a795411be7a6f417e415e1770b26cedf621052112f8a0ea8997a8a91c0b7206aff0584c6ebae7c9872a6c449b6f4450148dc69c187160d5c8
DIST ls-dyna_smp_s_R13_0_0_x64_centos610_ifort190.usermat.tgz_extractor.sh 322136436 BLAKE2B 1676cce2e7014ec0e68ea7fd8d38924c9af2e2bd79bc58a681b172b20970c5ff81396ac244fca61258c61c68d0e7b667041b7780e1c56955d2bf77b6331ee64d SHA512 b2d48ed3bb526a761a093bede3d247d1f95b79572f067be4ccbf454d8bf0314fb8e696d49d33325e143c12a27b56b0fd68a39b2d1648107df614ad66ab55f8e0
EBUILD lsdyna-12.0.0.ebuild 1553 BLAKE2B be064d7cb738721878bb0b3c7a70f60592ac93676d299f33e27062fb151cf8faf273f8e290cef25b92670d45f3d63b7588170954ec682b090099527e863851eb SHA512 bd0b856dbdd50361dd8070b86312fda6585ba89d830addd8034101b0be3d6146871c5609cf2a0a529946794974b6dab7afdde2d4d5c955f9bd3751e4f95b3687
EBUILD lsdyna-13.0.0.ebuild 2125 BLAKE2B 7388decb0cc12747f5eaed16c0d54ad690ddb3bb87111c6e73e6b8f98079fc831f9277bd2a0688a47ebbe889dadc6b81a2df9b36d49f2e80b74cc75ed6ecf1d9 SHA512 9a6ceea0f4c48ba18cd93ddee5a3ade9ac5ebdd3ff7920b3d8a700fb012d6712404c07c4a8434f25bc95e1c2fb7f4af7d2e8ee9b3714e34df9dba9659afd84ab
MISC metadata.xml 486 BLAKE2B 8e4b368a6ef418f2eeed3b2404e34af17c91074eaae8917fd0707dba3eefd6e0b8b52aa54eec8aaa89bcffee3d5a38f4c0fec7dbba565e863df88146c2015874 SHA512 c919777245fd6cf333b4a8346c8149f36b79f2eaed7902646fa8ab8fafd456dd5b2f130cd60132243ecd8507aced5b8b8e11e44eca085dcc78688ac45b04c282
