DIST ls-dyna_smp_d_R12_0_0_x64_redhat65_ifort160.gz 110800018 BLAKE2B 389c19952665e3c756007f3b189a84c23b1ed06af921cb9e65d0ae9442a0696f31e5edc818aabce98680c8a5c57a09ba86e87b5b46c2d0395df4e5567310218a SHA512 98a3b98d36c9e1a42812094adf171c1c73ea35716963de7cc751be946a71743b33ac60b34d41d963bab368e17e31099d03baae78a35f432a26c77dbe453d37dd
DIST ls-dyna_smp_d_R12_0_0_x64_redhat65_ifort160.tgz 138228360 BLAKE2B b4fed43bb7cae479ffcc5d162f8320d8c902eb90102c414a75859a306ed4e2c802cbb0f9ec724af8b91a076b0d474aa53ec4b1ff5fb5a0b3fd0e466ed08f856c SHA512 7610ddd37d94145eb24c61d606ce266703415556c4cb72f008b0614cd618ff0941e330df3b8756ea1c7e62528aa715afda1d49d35891d0bee329328d4d4ee899
DIST ls-dyna_smp_s_R12_0_0_x64_redhat65_ifort160.gz 84729516 BLAKE2B c235f2eed9fc8908a123aed859e9745e66e9908b70e788d3cc937d9abc316c4b7e2df535d823da14a962b0882223cb2430510f5930e4af8b007610b5cd4e42cd SHA512 8e42b2c42dd4bd8487e3414e5514a92a49d0096df2e5c4d21b99054f1fea7d302877b3e4c5f2028753df899e71a958a21ba77630bc8dff7daddc7f3fe3ac5593
DIST ls-dyna_smp_s_R12_0_0_x64_redhat65_ifort160.tgz 95204199 BLAKE2B 072f874ef67b145aa113782c4c477fad7767f0726cfa603625860dbabcd2ed6a644d7c05416d4de052f7a5854dde6967943cff20ef3e26957f2b35e7c0bf6b1c SHA512 83bbe23aced46419a13c714b3c1af794534f23bf5f5760864d0cebed6f6c45c3ff7ef7d009653e9915fd71445b96aa65ee9f6deb1b19e96928bf6c7c38331134
EBUILD lsdyna-12.0.0.ebuild 1304 BLAKE2B 3e27d6494f92bdb56e62e6b82700dd185eaee18b9e9b7a8ba0015b72512c7ffc939485643e4e56b2c8caca90f287a810aeb675473c5e71c8a32dfa12e20bfcc9 SHA512 9d1b2f9e4e37402c2b1395caa6a9e926894734b2736dac3f333da81d65f1d8caed7774b7a2e6df52464b75969838e6f3caea59cd7f31a6e974695e8aece33e82
MISC metadata.xml 440 BLAKE2B f837b0fb2754bb0097993898087e8b7b13e67e36289052ef0022211030be0175c114b22732337ea2f2abc1b6901b6783c29896afdf7fd02ca8d049c56c33b7dd SHA512 3d0190af8634f779a47dd16afdf437af9af7a95ad7f187f7c167a92c62236c1b2fd029586d144ad03a165e80dc89256e0597466fdcbbcbe4fb170cf2e53a17fa
