DIST ls-dyna_smp_d_R11_1_0_x64_redhat65_ifort160_sse2.gz 92510761 BLAKE2B 257bad1854b65053071ef04a6eacea239616ecb55d9f9442778d12acab75255ed4c139079b471ce2c0b756b0739b85b41d34f333e1795039934f13e7e07d5393 SHA512 82bdd0536696ffd77fa3617e599e4b8e5f9332c10a602d430f90aa7b4375b053ac5e2c0140a388080015c25f7279fea73da42f410c9902325b310c5a4bfdd5fa
DIST ls-dyna_smp_d_R11_1_0_x64_redhat65_ifort160_sse2.tgz 101322501 BLAKE2B 67124223bcd073cec7c09ac9f8dc4eaa1af35121aec83b42453a46f1db38016069093e9769c50bb02ded1c308d51cf3e36379706fd78d2db7b96709b6c8c3d04 SHA512 44029719bf191fc4aec7cfe22a106ba5ee14ce3a78ae753c269caad8237447966d46ba3f60598575bc9267506311506cbb1e1d343ad67cbc90499e5552bebaa3
DIST ls-dyna_smp_d_R12_0_0_x64_redhat65_ifort160.gz 110800018 BLAKE2B 389c19952665e3c756007f3b189a84c23b1ed06af921cb9e65d0ae9442a0696f31e5edc818aabce98680c8a5c57a09ba86e87b5b46c2d0395df4e5567310218a SHA512 98a3b98d36c9e1a42812094adf171c1c73ea35716963de7cc751be946a71743b33ac60b34d41d963bab368e17e31099d03baae78a35f432a26c77dbe453d37dd
DIST ls-dyna_smp_d_R12_0_0_x64_redhat65_ifort160.tgz 138228360 BLAKE2B b4fed43bb7cae479ffcc5d162f8320d8c902eb90102c414a75859a306ed4e2c802cbb0f9ec724af8b91a076b0d474aa53ec4b1ff5fb5a0b3fd0e466ed08f856c SHA512 7610ddd37d94145eb24c61d606ce266703415556c4cb72f008b0614cd618ff0941e330df3b8756ea1c7e62528aa715afda1d49d35891d0bee329328d4d4ee899
DIST ls-dyna_smp_s_R11_1_0_x64_redhat65_ifort160_sse2.gz 58350461 BLAKE2B b4af722a10d60a2f00470bfdc33126f23c492a5a6a9252aca4ed03bc6fc3f6ac0336063c49896023b65df58455ae3e79c4abcb6bd7c5d3c8e5351597809728ba SHA512 9e06cf619836557b03405042e7f80b2bfe228c869d897ba4a71029dcf9a72c3b085d1017080f1c220cd88f86dd1a3b3fc9acb32e0ca9b6a4e6566584f0548122
DIST ls-dyna_smp_s_R11_1_0_x64_redhat65_ifort160_sse2.tgz 72760909 BLAKE2B ec6cfd6e2d6e1fd7276a8fbdd041e95559dc9ed559ef94e31fd7fa9cbc886fc01122e7f25147de1a5ae197099cb12904b3e4e7d8dd2e6b4d2621b6b67e09f272 SHA512 bcb1f7e3d4d253add6739f80aac90d739aa349593c75325f209918dedec436f6e640e6d173c3144a4ec338341ee0b5926b55c5a217cf4504ef11148e42fe14d5
DIST ls-dyna_smp_s_R12_0_0_x64_redhat65_ifort160.gz 84729516 BLAKE2B c235f2eed9fc8908a123aed859e9745e66e9908b70e788d3cc937d9abc316c4b7e2df535d823da14a962b0882223cb2430510f5930e4af8b007610b5cd4e42cd SHA512 8e42b2c42dd4bd8487e3414e5514a92a49d0096df2e5c4d21b99054f1fea7d302877b3e4c5f2028753df899e71a958a21ba77630bc8dff7daddc7f3fe3ac5593
DIST ls-dyna_smp_s_R12_0_0_x64_redhat65_ifort160.tgz 95204199 BLAKE2B 072f874ef67b145aa113782c4c477fad7767f0726cfa603625860dbabcd2ed6a644d7c05416d4de052f7a5854dde6967943cff20ef3e26957f2b35e7c0bf6b1c SHA512 83bbe23aced46419a13c714b3c1af794534f23bf5f5760864d0cebed6f6c45c3ff7ef7d009653e9915fd71445b96aa65ee9f6deb1b19e96928bf6c7c38331134
EBUILD lsdyna-11.1.0.ebuild 1490 BLAKE2B 229cb71e54770f759fe2835f89b525f5bc852f77573ceab14162fd1defde1bf3503775497f30a2bdeb5ae52aadd6ef7704e0379cd8f005418dc647785806c051 SHA512 c084917cb8ee92ac866b61b30073b6f76eeb23f2359cb4efe770298c8895a4cad60bd0363c1b118150bb851b4ad754ca92912460c6e71fd09fa287812c7fdcee
EBUILD lsdyna-12.0.0.ebuild 1287 BLAKE2B c41d8b729033fce946d476ea3bec5ce97e436866a1b5bb0ef4d0c497d541f7f470d812ee1a356caa3de3ba07e8a8252bed55715fa591106d16ee1bbc4e607e42 SHA512 f39d66f4c0cb1d95c34e613f7064e9775f5dd2c4ac66ef8ab332626ad6b05fd277d4de42f7056b3b4f97479dab82a0d7d642b152092afb0b773960a73b13f0ca
MISC metadata.xml 440 BLAKE2B f837b0fb2754bb0097993898087e8b7b13e67e36289052ef0022211030be0175c114b22732337ea2f2abc1b6901b6783c29896afdf7fd02ca8d049c56c33b7dd SHA512 3d0190af8634f779a47dd16afdf437af9af7a95ad7f187f7c167a92c62236c1b2fd029586d144ad03a165e80dc89256e0597466fdcbbcbe4fb170cf2e53a17fa
