DIST ls-dyna_smp_d_R13_1_0_centos79_intel190.tar.gz_extractor.sh 127414064 BLAKE2B d965b9181535278192440ae5795dd5cd136ffdb7bd99b241afdab78dcde33ee834e7d81e9ed6e0d6a8a9002b4112d85d52c41cb5d7a4a13bdb7a63c2d8b8699b SHA512 26e3cf66daaa4d8a17b66475fa0f02da5fcd19653c35aa8aeb710631705005d263f6348df6b34349a7479ecd80f2dfc6bff28d5b6ce9e5ff8f7e8a225fbc415c
DIST ls-dyna_smp_d_R13_1_1_centos79_intel190.tgz_extractor.sh 115505577 BLAKE2B 3e675a74cbf60594eaad1335ca7f251a1463b1016981d8c13216f1ae7ad78b5ca6cbc151cffa8093468380ceba3d89d9ba4a3ae3375c773f4bf15c26712b5c35 SHA512 f16d6e64edf39acca9bde4a7f0932d000d33c9a03427fb330cbadd136435229228a5fd4cfd77fee309652189821c5acec7292da6e0c8a33eb3ce90f005346839
EBUILD ls-dyna-13.1.0.ebuild 989 BLAKE2B bd50e9526786732fa70c163704c3096efd0f16325287a1c5c2a6f7e930984aed0b166b2d8fa60ff30e206b273078d84b919eddfa5d53bd0944c277a4f6c9d2ed SHA512 c25384b605facad392a03666b0e8f7c487a1ae9fde74070bb3b575bb20514f3f9c420c6a8c42928b8bf15c5f2d4fa402a4d359ca7ea558c2b90d1889f05b1534
EBUILD ls-dyna-13.1.1.ebuild 899 BLAKE2B ec9499988d1d4c6ac5d3b093e1db45cf91db1b03f4c47683dea8b6f8271f07b172b5674e626da28bacef62c2c2aa5cf918d56763562c975cdc66d2c825f006cb SHA512 db19c2a4f9a85f484574e8fea7d110c1ab23ff9e8546ba40fcaa2abbaa640083f6cf13bfab2a094611e85ee635c2240a1d5903f5db1d10cb704a415f020f72cf
MISC metadata.xml 139 BLAKE2B b4a59c22790dfec3fbcfaea41ef363401766736b68a85bedae00e1944d0a848aa97104c2f34244c0fe7b6363029281f965fc1b3545301d341cda371eaa976274 SHA512 8be912ace7468a4396eb1da00a9785030a8ce35da4357a01591876a1056fd45e44da65de2af3e1eb0506ce6551714962c40c3ae5a3aefa2ad231de35af2519be
