AUX ls-dyna_smp_d_R13_1_0_centos79_intel190-Makefile.patch 2722 BLAKE2B 1ba21cf9e3ff6d568b44e85e4253d1e5fa9706912f0519f8e40f46bd7f87114244738ad0ed07f00143e4286d1f09d4e0debc116ea7726d8d93d27d72df9f856d SHA512 2a38957508766be92c201ffc781d8614d1d1c19781936b7e5c7021c47e8f758414e5ad77bae37b993c2d178ea77cb50b86f8daa60a53f6c8e45133e0b161ce3a
AUX ls-dyna_smp_s_R13_1_0_centos79_intel190-Makefile.patch 1968 BLAKE2B 0ff212a1566a9ff5cdb8ea7ba8b7218d6e33e05b21b35f4bb5625444cf77106014831b9cffe8264c7a26e109db56f2937b8fbd296de88eb9a7299f1f9929c88c SHA512 bd0d4e0d885e7dd895a6a3160857fd87033c7249e1ecd08382fb1d11167fa9eb5cb4cddc85b80bdb8caf2c10900462c7341e895cb25cf8b16dd38efbeb1e07b7
DIST ls-dyna_smp_d_R13_1_0_centos79_intel190.usermat.tar.gz_extractor.sh 154505073 BLAKE2B b81358c32a4474e80543b1ee309094a798cc946ce83ffa7f2fa37d40ba8bcdaa7cb2bf6393cf6d3ebdf8bf0c1270b03ec46b0c94ac15f84d69fd585da469556b SHA512 8ad209801286c841634267b6a5eadbeff46a3c5b036d7dfffa8a4efc33ef15342eda5d48e42d07d2f0ee2214a5d6a55e1f1085976b740a74d09c16742c138227
DIST ls-dyna_smp_s_R13_1_0_centos79_intel190.usermat.tar.gz_extractor.sh 111485727 BLAKE2B 53c85818503e0ab08aa2ea08a4460a0859c5c9695560c07d2b4b0f033758470739fb465efda49c21a08eafd01b98dc522ed900ae1acefcbe81315492c8f699b7 SHA512 bd6ccd1ebe86b1b7be9c0e82e317770d84d1c18512b2d4fcc7f7b7ac68ae48f3c0957b6ad141d96faf19c1f46cedd025c89a88dbc649f15addabded4f961d2ea
EBUILD ls-dyna-13.1.0.ebuild 1707 BLAKE2B b0d9e06d7e0affe6051f67dcb4ebbf9504fb48a1606c7601d54e76af90d3e67c765d0e0f48db94abb17676070e68987327eb2f48a8c2931856e9a64ca420e7bd SHA512 525449ef6e6a89e2d11cdf4afa148aaec8c61fa2c822cda893f6476951be67246032c6eb1172cefb637241eca329777567cc532f3a7fcde0fd43c89fdccc5b2c
MISC metadata.xml 302 BLAKE2B 702c9c159fd252687c6529a1d3a374ea8fef59665e0618fbd29cb396f1b72c1838ce66c30a5a2160f190dc2f6e977b5bfd428d9e3e271650ce43cc7bdfda35d2 SHA512 664d88155a383ffd496b0e2b8c0642f17c393eb95af04be60533994cb50f37a74b45edc1d8be6999ffb0e2540551af5143f3477e894401d3d8081fac7275f509
