DIST ls-dyna_smp_d_R11_0_0_x64_redhat56_ifort160.gz_extractor.sh 79432712 BLAKE2B f54a53a5e03f1e9494e4690202ed0364218881c167084fa75bd6a38e8deadf91c4eba2d2133f020f76c31af2c8662a8054f1fe8d65dcb5f961cd34444849d185 SHA512 5082ad153722584c6ba6506c73f6bb7b58ba1cd4ebbac9f2e0695fc74598a3c70df1231cc1df6b367dc025171d9b640b06ec092eea59226ff4782fc01c852530
DIST ls-dyna_smp_d_R11_1_0_x64_redhat65_ifort160_sse2.gz_extractor.sh 92574514 BLAKE2B fd8a9a8d85b9db2afdf86529d34c16540d5cde3bf48c85e0c23d98d86a9f8afe4b88c3ecb649cdb4ccbd4ceda0fde9aea1bba8ee399415cc00941b80cbcc5d3f SHA512 fe9e42d1e092024c75248e58219a79bc51c31598ef7c2b9f463ee3ca43c93dd5d817ef63f177d27ff3c4976f809a2c986853521116a62e5ec3c4c702d95a6a9f
DIST ls-dyna_smp_d_R11_2_0_x64_centos610_ifort160.tgz_extractor.sh 109084475 BLAKE2B 304dfb2568ea150faf1bd62d7dce0bf8c7f4ad4f5423f8b4080ad7f32d0249f657ae4d34f308031546381f096aeae434906a0324f7373a46ff472f9ecbec7f46 SHA512 b46f40296e4ea7ffd97c94318debf985c1c217785d1513fb7611699576fccac1666d62f09ec009f7a4f89dfa58bbd775045eff838ac7439b3a6a6ee9cb0c2915
DIST ls-dyna_smp_d_R11_2_1_x64_centos610_ifort160.tgz_extractor.sh 109101549 BLAKE2B 88a50dcadbdc57cb8513b9e4f54bab7de0da75a8bc3b89b6f5baf0a75822d8b7c440dd03755c8149dcd2853929de7aef0a26a70a87b893e41368ebe18b73009b SHA512 9aebdcd11c0e60e71308024b3ad6a9ecb56b4ec1cd6f8d2124bf53f41cc9698a8e058b2a64dbb7fca5f6453c00eb78d8ad36764ff5d8d30e3fc3092d169dc064
DIST ls-dyna_smp_d_R11_2_2_x64_centos610_ifort160.tgz_extractor.sh 109678054 BLAKE2B 83667b3910cf3c45fd64925d0acc963f4ea7621258c8e85c3a488356f7c39b06d50dec555d7fbc827d13e678a2b18579b71e6b9ac5838416534a62d42d1bbb00 SHA512 40d5e7904f71436d46bc577edf47cf543f82480e798fb08153abdaaea8f2a05f0cec250897ad5a8b0b84667a4cd31e891958aeccb48dad4642834ae58fccd8f9
DIST ls-dyna_smp_d_R12_0_0_x64_redhat65_ifort160.gz_extractor.sh 110861512 BLAKE2B bd6fd96b39a2dc2c410fe5121741cb61ad918d308072b77ab0c0f51c10366a82c5774a3f03807e057861fc69d2769de340164b940009c9ed8071f90a83d3f2b1 SHA512 372a8020300942901a3a84b150b77f855091892872fa562cd2e86b97ac24c157ff2ca391d25404f1a084e25a36cb36a513c84d3aa54d71ec2fe871712da80c8e
DIST ls-dyna_smp_d_R12_1_0_x64_centos610_ifort160.tar.gz_extractor.sh 119094756 BLAKE2B 576e29206a0ec0d1d1a1fd90a898a18c5bef51171a1b07f84aedd6b842369a99d492b6fc4aed372c5602ddf269bb31786ce258739a538b35b48c2cd6385164d1 SHA512 1328fe73e5cbe218b80a62e752b1b661fbaee14151f8314a7d0a55e25b117a33eb8fb5db6c77afe275aa4bf7c7e48cc64a7a04b0383608bf297382a319c6eca6
DIST ls-dyna_smp_d_R12_2_0_x64_centos79_ifort160.tgz_extractor.sh 113780111 BLAKE2B f8581f57aeb2079ad742045973ba2a23c6efb2f96d1b2cd8986fd532dafaf0ae002ff6c2bc79714295b1097e4616a224c415bbd7a43912532cddab5b3e0bcbfc SHA512 8f114a7c37e4c3fab4555d1497579b50d7f2ec7c8abfe10246b8ce26b98d7b3ab55e123feaff232e809d64c159c8a24a199b5133fe40a7c0acd2dc03f490e4eb
DIST ls-dyna_smp_d_R12_2_1_x64_centos79_ifort160_sse2.tgz_extractor.sh 105615415 BLAKE2B 7b9cad35f21d5ddfa38645cff816164bbb96b28364b7f4a013347c05bdb4a80feb59f5853b70c6f57805f253facc1882175c9e196ba7ea891b552687cf54fa14 SHA512 602102c0dbc9002bdeea1f647277910e14e54cf7cfbd7d51c6b29c33b1f8be7dda07ac591dedecf1433a08ef3a2f2b718bd2708b8f2186ddc6f5addf5027f5a3
DIST ls-dyna_smp_d_R13_0_0_x64_centos610_ifort190.tgz_extractor.sh 125773052 BLAKE2B a9a4a6bf933de8bd73348565ccdd1fb52dbf276cee6b091b31f45f0a49230cf9b6a4d22719bfbb9098fcbe33e891337ec7e307ea4cda6ea7a12db529be4c4f42 SHA512 9d81283ebde53e564924678ffd6c3212f1109ecf25f32806f1ab4cbeae8c9a1df0edc0db529d8863f45736c03df389cf9e48cd810ee3d0ca8ee269304f668e19
DIST ls-dyna_smp_d_R13_1_0_centos79_intel190.tar.gz_extractor.sh 127414064 BLAKE2B d965b9181535278192440ae5795dd5cd136ffdb7bd99b241afdab78dcde33ee834e7d81e9ed6e0d6a8a9002b4112d85d52c41cb5d7a4a13bdb7a63c2d8b8699b SHA512 26e3cf66daaa4d8a17b66475fa0f02da5fcd19653c35aa8aeb710631705005d263f6348df6b34349a7479ecd80f2dfc6bff28d5b6ce9e5ff8f7e8a225fbc415c
DIST ls-dyna_smp_d_R13_1_1_centos79_intel190.tgz_extractor.sh 115505577 BLAKE2B 3e675a74cbf60594eaad1335ca7f251a1463b1016981d8c13216f1ae7ad78b5ca6cbc151cffa8093468380ceba3d89d9ba4a3ae3375c773f4bf15c26712b5c35 SHA512 f16d6e64edf39acca9bde4a7f0932d000d33c9a03427fb330cbadd136435229228a5fd4cfd77fee309652189821c5acec7292da6e0c8a33eb3ce90f005346839
DIST ls-dyna_smp_d_R14_0_0_x64_centos79_ifort190.tgz_extractor.sh 116404255 BLAKE2B a74ed31e836dd515809082b62f24a5de00b2c55cf678ff750eccbdd5153b43c8e0e06ed743fbd1b8882244f312e7192eb17d6b4ea6e2c702d49fccb1ba4012d4 SHA512 eb0f4cde8c1f5148e233f22e6cb73d0d474afbdf87e398d016fa7d54c718407bc57fc4f6a03acff3868c4a937187842d621315d94bdcb8778e7b32d31f068b9b
EBUILD ls-dyna-11.0.0.ebuild 743 BLAKE2B 4479954216ca8fb90022012e4801e3e81c50d350a896784f3b6772755555c72a5a3b394a1debe465d65fd430b03f3a367c74f63b50552da800785e71d9f20385 SHA512 7acb18600565e407f24bbd40f9ed8e9fcace4fd9e6d9dae3f3e859defd9412c3bb0b8cd87ae358f5574e6738534f722692bbd0e3f3def0d69410b1f15a07bf19
EBUILD ls-dyna-11.1.0.ebuild 785 BLAKE2B 934c7b2ddea062040fb6719ec80e206879be0ed02716c34fd45171be49c4102de0659097c509eac24eab87ea6167dc8fb03ab9e0efc854682af88be49e6e65b1 SHA512 11f9f59d65bf621c59a1f071d760be618e443b16a0b0e05ad77aa22ab4cb9a939be3e285d4669cd5460db11190201acf9985bd8fb28f27fdcb52c0b6172cf197
EBUILD ls-dyna-11.2.0.ebuild 916 BLAKE2B 1d069b6409168098b3720bac209e78d5c7cae4fbf0f65c25ae7bb9999c2c6a04a4a3558380fa9e12b4f23b2970f87826576d021ab033299ee990921bd40dbbe5 SHA512 2bae344f0e708eec66adc27ba7361ab39ca67419b90b5fad1b5977b0ac39a765884c3d9b14692e52452a4bff7a350556d4ff44d2a80164cfc46ea27f474e686d
EBUILD ls-dyna-11.2.1.ebuild 916 BLAKE2B 1d069b6409168098b3720bac209e78d5c7cae4fbf0f65c25ae7bb9999c2c6a04a4a3558380fa9e12b4f23b2970f87826576d021ab033299ee990921bd40dbbe5 SHA512 2bae344f0e708eec66adc27ba7361ab39ca67419b90b5fad1b5977b0ac39a765884c3d9b14692e52452a4bff7a350556d4ff44d2a80164cfc46ea27f474e686d
EBUILD ls-dyna-11.2.2.ebuild 916 BLAKE2B 1d069b6409168098b3720bac209e78d5c7cae4fbf0f65c25ae7bb9999c2c6a04a4a3558380fa9e12b4f23b2970f87826576d021ab033299ee990921bd40dbbe5 SHA512 2bae344f0e708eec66adc27ba7361ab39ca67419b90b5fad1b5977b0ac39a765884c3d9b14692e52452a4bff7a350556d4ff44d2a80164cfc46ea27f474e686d
EBUILD ls-dyna-12.0.0.ebuild 743 BLAKE2B eeca576760afd18fa81c1e3a7491e1bf7690930a2566c7acdabc2ffdbea159692e1422babf472aad3a3c31d82816dc6b053453ac11fa09ac7e2e59660be1eae0 SHA512 77009d460ee4f59103f787013944002e3f42a536fbe9d16c23c32ae0f4767ff074a41afa507fdf19708ae2934170391f4e42a965399f32ae8323f409eb1c4d8e
EBUILD ls-dyna-12.1.0.ebuild 919 BLAKE2B a8d3c748d8f0c28903ae4b27d4f636e3fb6037d71a5505b961f57bb5c64dffa6ae9246fe28c50d27aee3958cdaf5e7fa271bdc817d432ca702ff894320ba8be8 SHA512 8dffbc82528614f9204e55a7e4458c827ae304104723e4fea15f849fe235efe50c6737b252b8d3fe237b28e7e877a1bffc73e5b58cf8c6f124023070c542af2e
EBUILD ls-dyna-12.2.0.ebuild 915 BLAKE2B 628c0771bf7a3fdc29124e8ed6d92866756b0c35633852bce89d47b9aa82bf3f55b87d1551d878bbed5af227341c6dfd80a20fe608debaa09b7b4ea2873b38a8 SHA512 a6fd04575f0cdf7d8b0196e5c435d2d8e1e3676dbec15e866a9d2b99f25907c5b51cd3596ae5e4b8a70a2b82f5d47f68c5a11644a915b41acb2792f947d08ec1
EBUILD ls-dyna-12.2.1.ebuild 824 BLAKE2B 367f9f890c53953543847d2dce290cc0d01c4dfc7d3a043933e31e5defd19a08fd0897ca52c8dbca494b923d17ac57bba4c8a45b11c28efc376d7f8b59ce891d SHA512 d52247f70824d3248a8c03eed04b410e3f2112a7eb4d0976c04e7248ba4b1e99317a8b7822c8c688f07727e5abeeb7d0cc8eb8e8f18e97f508ee4f207676cf82
EBUILD ls-dyna-13.0.0.ebuild 916 BLAKE2B fad53d52a368af7be84aea27a4aea213ba4a3ddbfa6888b9e3f5342baa0efc663c18eed2931686f56085286833d1c2871a5a2ac3950a3a79beafe7dc20c78d34 SHA512 927f21a4cba881476bcecd889ee7cb38a6461ed3687ca7d9af92b4a751f8404443121fd1d0bfffaf7b21cb912ea84bd472b1dfcfb93fa2cbef1a3e9b322f3a0f
EBUILD ls-dyna-13.1.0.ebuild 996 BLAKE2B a99266bdff7b5f4f4b97b791d7d3e2d0440a9260c8159572f424fa899e100fba0508a88e633385bf36c7ea8c323f51baf97f58ff64d9a00eb340c964590238ac SHA512 43083d7ed797cc06b231be39c3229e942c46e8a631b816ed81badd202fec51aea1c9799b3731c3024d2679bd598a4d322391d0be1e49534f46b0c389c24b6e6f
EBUILD ls-dyna-13.1.1.ebuild 904 BLAKE2B 68a3906e0ec6bec9bc25945ac028a4100c88a33f52063c22e453a62625c83b4a17000d9054498f1e34a45b5c7146d4f5613ba8c04fe9a89be6f0fcf9254aff7c SHA512 a51b1d8ab8cc2be4d59a232e4f0020dab57c30be047729d8b086e687937dc9697359399511b0920d3d705669ce2b7b420a6f797b7a529215aeba6ab514b1b707
EBUILD ls-dyna-14.0.0.ebuild 915 BLAKE2B 1e34d291656fcea32d40cb0d78b16b0ee12bde067774265bc1f35c49532878cab0b160e754212eb98bdad0f29e3dc44383cf622f8906e3ff86a6b36acb63d02d SHA512 93d726cdac41f708c12f2a19668301840ea2c46829a46e4044e955586beb9198a3aee471c0cc3808a6d5d4a693fa550aaf3394f1d4b9251fe66f84fd08f8c3d2
MISC metadata.xml 139 BLAKE2B b4a59c22790dfec3fbcfaea41ef363401766736b68a85bedae00e1944d0a848aa97104c2f34244c0fe7b6363029281f965fc1b3545301d341cda371eaa976274 SHA512 8be912ace7468a4396eb1da00a9785030a8ce35da4357a01591876a1056fd45e44da65de2af3e1eb0506ce6551714962c40c3ae5a3aefa2ad231de35af2519be
