AUX ls-dyna_smp_d_R13_1_0_centos79_intel190-Makefile.patch 2631 BLAKE2B 64aa48ac0cf8b43d439cce1c38021e2df62ffe89fe7744be174514c6143f28206e1d6945fc42ab0c92af826d7ae531d91ef62e18e6df767d6ec09a4fc9afee3f SHA512 53d8ae5bc8b5f1bb00483856c115311d0452b9f98cf777d78c0edf0850e98354cd774326b0f16d8a7bde089b2a639eb4fbdd537f09aebcf5ab895554b8ce9967
AUX ls-dyna_smp_s_R13_1_0_centos79_intel190-Makefile.patch 1879 BLAKE2B 114988a25b87eabd8988e5a6d4b2985c453e48af9722120748f9822e1435ae958fc1e79ac2c591d8a473af6432ce2109ea1d45055ce31b6834814f4c91578f65 SHA512 7bbe42534eb82f7f2f779aa161567b60f00ee2c600be1712e03cc4b8bbf7919f01a1cf4a5dc3b739f14bf5713e2c05b9cb27dfdc61a7d6f32621899c70303e12
DIST ls-dyna_smp_d_R13_1_0_centos79_intel190.usermat.tar.gz_extractor.sh 154505073 BLAKE2B b81358c32a4474e80543b1ee309094a798cc946ce83ffa7f2fa37d40ba8bcdaa7cb2bf6393cf6d3ebdf8bf0c1270b03ec46b0c94ac15f84d69fd585da469556b SHA512 8ad209801286c841634267b6a5eadbeff46a3c5b036d7dfffa8a4efc33ef15342eda5d48e42d07d2f0ee2214a5d6a55e1f1085976b740a74d09c16742c138227
DIST ls-dyna_smp_s_R13_1_0_centos79_intel190.usermat.tar.gz_extractor.sh 111485727 BLAKE2B 53c85818503e0ab08aa2ea08a4460a0859c5c9695560c07d2b4b0f033758470739fb465efda49c21a08eafd01b98dc522ed900ae1acefcbe81315492c8f699b7 SHA512 bd6ccd1ebe86b1b7be9c0e82e317770d84d1c18512b2d4fcc7f7b7ac68ae48f3c0957b6ad141d96faf19c1f46cedd025c89a88dbc649f15addabded4f961d2ea
EBUILD ls-dyna-13.1.0.ebuild 1743 BLAKE2B 9685e94beeb62afc931219b9280d8d7eb6e53b4f8397a33028222972f1251035a9a1db20b08f9eec99d26798e9db2111ba0127f94c26e0bac61dcaba259be733 SHA512 471ccd81922ea47ea7dfcbb392ae81be604fccbe9f25f32082559e8f34ec8f437a1279c0839ae910c47cef15676176711e46630dbd16d3b85cbcc8ba24df209a
MISC metadata.xml 302 BLAKE2B 702c9c159fd252687c6529a1d3a374ea8fef59665e0618fbd29cb396f1b72c1838ce66c30a5a2160f190dc2f6e977b5bfd428d9e3e271650ce43cc7bdfda35d2 SHA512 664d88155a383ffd496b0e2b8c0642f17c393eb95af04be60533994cb50f37a74b45edc1d8be6999ffb0e2540551af5143f3477e894401d3d8081fac7275f509
