DIST ls-dyna_smp_d_F14_0_0_x64_centos79_intel190.tgz_extractor.sh 133252500 BLAKE2B 4ba67b4d8bb3e4c32d2fe7dbe809344400e95bcfbd850770c4f1e440724f9b4bac0184fb94565009659b13e5fd4fd9e912b857bb6aeba5ed480f714d265cd07b SHA512 474e36323731744a17da7f90bc98154fbd16c52cdf6be1f700d6cc655c4e7c21dc6267ca47bc80d60f0b442629d890c406dfc36e7504f86f282775f107c4f2e6
DIST ls-dyna_smp_d_F14_0_0_x64_centos79_intel190.usermat.tgz_extractor.sh 448484131 BLAKE2B e271b6f5b0b6d3c26dfa9bc82d40b35a87e0d541912e3447111801d2788f657f9ce7689985924ecc6ea7a3aee6494260e985b3229f9d86a1d30f0d6ae4869e48 SHA512 0dd24c4856aba991228548ebb09d25a65bb780e73d123f73d11aa18d166620db4dc36d518afec3d0ddd5e8d4d012dae6ae87180890cdcf2009cd4993799ecc6b
DIST ls-dyna_smp_d_R11_2_2_x64_centos610_ifort160.tgz_extractor.sh 109678054 BLAKE2B 83667b3910cf3c45fd64925d0acc963f4ea7621258c8e85c3a488356f7c39b06d50dec555d7fbc827d13e678a2b18579b71e6b9ac5838416534a62d42d1bbb00 SHA512 40d5e7904f71436d46bc577edf47cf543f82480e798fb08153abdaaea8f2a05f0cec250897ad5a8b0b84667a4cd31e891958aeccb48dad4642834ae58fccd8f9
DIST ls-dyna_smp_d_R11_2_2_x64_centos610_ifort160.usermat.tgz_extractor.sh 284527693 BLAKE2B 062d2b6a5f3df433d052c213d02a4657e5df26dafcbcd28745452c2c90c0aba6585c090484ac77fdd7e3ec7f43a5fc651e422899e42afa86660694476e78082c SHA512 a3933342cb4a0107150bfacc9ee71b182f69850d176e5cca2ca408b1ad9331aca010ac1a04e28454e3f8cb8e9facf18d0b7454dc5c75a3f049643710453b8787
DIST ls-dyna_smp_d_R12_1_0_x64_centos610_ifort160.tar.gz_extractor.sh 119094756 BLAKE2B 576e29206a0ec0d1d1a1fd90a898a18c5bef51171a1b07f84aedd6b842369a99d492b6fc4aed372c5602ddf269bb31786ce258739a538b35b48c2cd6385164d1 SHA512 1328fe73e5cbe218b80a62e752b1b661fbaee14151f8314a7d0a55e25b117a33eb8fb5db6c77afe275aa4bf7c7e48cc64a7a04b0383608bf297382a319c6eca6
DIST ls-dyna_smp_d_R12_1_0_x64_centos610_ifort160.usermat.tar.gz_extractor.sh 288621643 BLAKE2B f777a1d464fcc61be4714200b95ca4f50ad59295058269b719b29bfdce105f3b81ba3bb4f64441e8102d2c60cc81f0b916ba68a0a3bb55fd4f797962b3b365c1 SHA512 2196eb39b6f2e77ae4909d079c005d2145bff06bcd6f8a205b5220325e11aa7f62eb299ce7072400a1cc3e99c6597a87a52d2713256086a195e35365a9e69645
DIST ls-dyna_smp_d_R13_0_0_x64_centos610_ifort190.tgz_extractor.sh 125773052 BLAKE2B a9a4a6bf933de8bd73348565ccdd1fb52dbf276cee6b091b31f45f0a49230cf9b6a4d22719bfbb9098fcbe33e891337ec7e307ea4cda6ea7a12db529be4c4f42 SHA512 9d81283ebde53e564924678ffd6c3212f1109ecf25f32806f1ab4cbeae8c9a1df0edc0db529d8863f45736c03df389cf9e48cd810ee3d0ca8ee269304f668e19
DIST ls-dyna_smp_d_R13_0_0_x64_centos610_ifort190.usermat.tgz_extractor.sh 378356872 BLAKE2B 5b034afca236ab60b0bf7a5cd62e959fb95fa3fb3c6015b6d0e52a8ee664789ec6a34b6efdff1449e8016069dab5764fc56ce7ca3fb304c84b29c0c0973754b1 SHA512 dd752346605b9b57a1c0f8e06b165abca2a9f8120d0765c7e723d8f89c17b70a06b8a656d91590a403de9782eb79dece99dfc57561b2f08004248d96e65d18be
DIST ls-dyna_smp_d_R13_1_0_centos79_intel190.tar.gz_extractor.sh 127414064 BLAKE2B d965b9181535278192440ae5795dd5cd136ffdb7bd99b241afdab78dcde33ee834e7d81e9ed6e0d6a8a9002b4112d85d52c41cb5d7a4a13bdb7a63c2d8b8699b SHA512 26e3cf66daaa4d8a17b66475fa0f02da5fcd19653c35aa8aeb710631705005d263f6348df6b34349a7479ecd80f2dfc6bff28d5b6ce9e5ff8f7e8a225fbc415c
DIST ls-dyna_smp_d_R13_1_0_centos79_intel190.usermat.tar.gz_extractor.sh 154505073 BLAKE2B b81358c32a4474e80543b1ee309094a798cc946ce83ffa7f2fa37d40ba8bcdaa7cb2bf6393cf6d3ebdf8bf0c1270b03ec46b0c94ac15f84d69fd585da469556b SHA512 8ad209801286c841634267b6a5eadbeff46a3c5b036d7dfffa8a4efc33ef15342eda5d48e42d07d2f0ee2214a5d6a55e1f1085976b740a74d09c16742c138227
DIST ls-dyna_smp_s_F14_0_0_x64_centos79_intel190.tgz_extractor.sh 106906491 BLAKE2B f2ed878019262849b4598fc3e1578f3e7d3a6e7febe274de7ff63d602d2c37a57ef3adab8d3a8c01bdacf0a07be48464aff43e39b4e0dc0ce773ad3211fd5f52 SHA512 547b38d27e4c045aa1df8ed1003bd900e60da58cfc068941bcf681599c5c284bc87efa4bfab4a31321c3a2c0b26f97e2a2e70f16b6118505713624d30b450afc
DIST ls-dyna_smp_s_F14_0_0_x64_centos79_intel190.usermat.tgz_extractor.sh 117022671 BLAKE2B eed5731857acdf6889f0b577f3a153f2bbbff586f509d07e49bcaf974e5aacd0f8a39f206e3bde18b13aaabd6b93fe3b973f2f8b8e40a52c6815a5087b09870f SHA512 72e9bf791400a8497474514cfa5a046fc723f0d586b910dea46500a69c5e2c3cc5c277f6270b13da88f949c808b25dce795aefeace267d3ef02db1a26f797326
DIST ls-dyna_smp_s_R11_2_2_x64_centos610_ifort160.tgz_extractor.sh 85175457 BLAKE2B 1531e809802b94b910bf5e0e3276af5fc51b28c11849c877fb4cec60aca5bb9a96be25ff31e01c56166e0844ab95a8499bc469993a2a84e7f6444e1239183cd8 SHA512 66ee3b7626c4f850f680fc19956a3419ec1f74702cad5d57bf29df6881eca7f00e58e538205609def529e62edaed5bab86734fd30a300f99f3b2a5342b1851fa
DIST ls-dyna_smp_s_R11_2_2_x64_centos610_ifort160.usermat.tgz_extractor.sh 239355108 BLAKE2B 29d5765faa9abdfdf49a02aec3bcd84a37f4af55ae4ad3b24ddba9192e2b809c0c5f1d23bbd4672ed8e3d98c1ad44f20656b99f1a793b758ac33ae38ce006bbb SHA512 790da6c81d6c0fd61227078d00502baee980171c29b14522750d7e76036103935993bd891f64c65d01c3708421667ccbeb70c87a0ae3c2678c8778ad5bdebe6c
DIST ls-dyna_smp_s_R12_1_0_x64_centos610_ifort160.tar.gz_extractor.sh 93206362 BLAKE2B 9e1679f63d899e3f8f5e64a9d1ee9b34eee0f2aa8f4458f00eac9ad033eb66eda59f77bd4f2e280c87348472ff1794c52bb6523a9b96c4a7b373f96364a187d7 SHA512 24f4f7733deda8aefab183b1dda386360ed54d4c02a8f12ae1b5d3a1e2e81e8578c5c721e14098f5f34c0820d3123f9c57042e613448ea8db17762d4cefd3d14
DIST ls-dyna_smp_s_R12_1_0_x64_centos610_ifort160.usermat.tar.gz_extractor.sh 93576428 BLAKE2B 33e4f5731a4b011c903bc27b2a1c150e539ecc992acba6df50ce39b1ee8432ce3741d866c4d096a9d18fab666c4d0407208bb56925d005b1cdbfcbc4a862c134 SHA512 3084722ba7fd52ce3ce93a4a418e583dab08240d88f81fc8e5359797c681148c5936893d298a7ac75daa4ebb92bfd6f78fe31a179a816efaaa9cb2118c268f24
DIST ls-dyna_smp_s_R13_0_0_x64_centos610_ifort190.tgz_extractor.sh 100787742 BLAKE2B 34d3cf9d7d378467e9ccd094c4fac84ed92ae9643824ec2bec3b42a5bd637c9adc6a5b7e0587ad3ada2ab4325b97e612b3a609ee3e2633f34eabc921a0b553e9 SHA512 ce79977a9587399a795411be7a6f417e415e1770b26cedf621052112f8a0ea8997a8a91c0b7206aff0584c6ebae7c9872a6c449b6f4450148dc69c187160d5c8
DIST ls-dyna_smp_s_R13_0_0_x64_centos610_ifort190.usermat.tgz_extractor.sh 322136436 BLAKE2B 1676cce2e7014ec0e68ea7fd8d38924c9af2e2bd79bc58a681b172b20970c5ff81396ac244fca61258c61c68d0e7b667041b7780e1c56955d2bf77b6331ee64d SHA512 b2d48ed3bb526a761a093bede3d247d1f95b79572f067be4ccbf454d8bf0314fb8e696d49d33325e143c12a27b56b0fd68a39b2d1648107df614ad66ab55f8e0
DIST ls-dyna_smp_s_R13_1_0_centos79_intel190.tar.gz_extractor.sh 104813899 BLAKE2B 47a3f425aef131b178ccb3208d6a91da51036e995dd3064b910b4949a11eacbdc9ff9ff1b3ad5c0ffae5ec2b46f3a565a29ebab4c88a4b6b93d12a1cc51f1a7c SHA512 308c61eb33d2dac40225b93dd763002560c4574a58a83e1b22961757904e47215322f5733c36239b5bf39dea57f662efea3927d3f020537ac53fdb12c00e0597
DIST ls-dyna_smp_s_R13_1_0_centos79_intel190.usermat.tar.gz_extractor.sh 111485727 BLAKE2B 53c85818503e0ab08aa2ea08a4460a0859c5c9695560c07d2b4b0f033758470739fb465efda49c21a08eafd01b98dc522ed900ae1acefcbe81315492c8f699b7 SHA512 bd6ccd1ebe86b1b7be9c0e82e317770d84d1c18512b2d4fcc7f7b7ac68ae48f3c0957b6ad141d96faf19c1f46cedd025c89a88dbc649f15addabded4f961d2ea
EBUILD ls-dyna-11.2.2-r1.ebuild 1882 BLAKE2B 5a5e760e6d9561dbbd70ed7beeff37a483e141c0f7fd900cfe4cc8f40924ddae6b0f3fd27dd1b636a9a69cc8ea86e3fa460b180756ebfc2169791fc1c47096dd SHA512 4b02ab8b9c7dd61107afbe3abab9fb1addb230e89456e7f993b825d8d40819ebbbda0c4d8d00072aa75bf3b6dcfc36d176e6ecd5b9a3a6d5ceee22ebfd0c2a69
EBUILD ls-dyna-11.2.2.ebuild 2037 BLAKE2B 956b5d9f038bf8889b56f6ed21f45773800ee0b86806c76841fc8237b057943477c79e21686ec80d4b6bac1898b4f9629b586f24de29b6ce8ae553061318b4b5 SHA512 de1760990d1bb798a8df480eb31b670c756b67e23c93fe727505fa893f14e1ad90977d67dee68e1adec0328f5d33f544d1f1a67bb95208b4cdfe268bc28167f0
EBUILD ls-dyna-12.1.0-r1.ebuild 1885 BLAKE2B 96f249232c15e65c52e8e55a46dc8951fa11ceb8f2294de2647e9daa32816d78feed909035cba24238dc7b1ec377d7ea52ac8527249def26d03f120c2c8496eb SHA512 b647ab9497bac06f9fd227fba004df7800d6e701be39e0848a2b822be557b8acd63300b79f8bee58df7d97e2718ebaeab36b3ad625f6885c0e90957d0a9e81d1
EBUILD ls-dyna-12.1.0.ebuild 2040 BLAKE2B 9c013ce1941cc6841e357d304b20724f57038c6f2dfc64c41c04873d1da18271845eac251295e60091892a4eb2860991181bf6427f51ae37775807ffb9bc6f24 SHA512 53c7338a46bfdfdd1619bec1cbd857ffbc8a917a94a4a8de871644646aeac519cf7edd602b501b6059f1b11f8d4986c96b2de775faec4770096085e12ff98f4e
EBUILD ls-dyna-13.0.0-r1.ebuild 2037 BLAKE2B a150c3f314fdafc8bc9a37ddc372f0733cbc45bd4b00f0484d0f2d31cfe25175a9252b35c6b8cae8e38185ede545d85027b28cf531757cf629de29051402bc24 SHA512 36f362028a143c82340f043f8e54b71a63465521e2c00e059fbd1b081b26a171495ebf1838e32a63a58551fd0b570062412e4cb95fbdb469df8ac348d3f7a351
EBUILD ls-dyna-13.1.0.ebuild 2007 BLAKE2B 691e0b4e05be84aaa389f962ace611a288c7c314454414ea6fd90ca3cef85d11e1c7ed3f96aaae2df3b9d6bc086bd111b2fd9d0959320bb92d424eaf29310a25 SHA512 f23e5306926c342f3d48affa7ae049d620d50f72ecb2ae0730c294a763e08c2d9747a6cc4a81567635a052ead07365f2e97850c7f4b3ea45b36138986effe2fa
EBUILD ls-dyna-14.0.0-r1.ebuild 1880 BLAKE2B c35247b3b8f3532c790fc902c942730688dbd30284a248c2e06ccac4009baa202610cdfd49ec3d8e1a87eb1ff374b6a2060fa6e730315c6ce5c0cc7990400ea8 SHA512 18306ea65436dee80ac46925f6048938519f4f34ddff71ef6d6d553eac5601f9f245da0b84d3ff6db2fcd0f997448a42548c69313e0c0b6ebf361f6565274510
EBUILD ls-dyna-14.0.0.ebuild 2035 BLAKE2B f6414954ad5218a066ed09357c0003ad6297350f8c2867d60cc3f538f7753b74a6f76c738a7ecf608c4d9dffa94fee5679ad7990afd666c3dcf30179e2350df9 SHA512 590dd0c8b4406e12ca9fa2944507b478e3c53bb6921c18f6ac313ecf1694f3b0d77821121ec533bae84289b7d5728366a6b47b815889cfd1284365e090029b48
MISC metadata.xml 486 BLAKE2B 8e4b368a6ef418f2eeed3b2404e34af17c91074eaae8917fd0707dba3eefd6e0b8b52aa54eec8aaa89bcffee3d5a38f4c0fec7dbba565e863df88146c2015874 SHA512 c919777245fd6cf333b4a8346c8149f36b79f2eaed7902646fa8ab8fafd456dd5b2f130cd60132243ecd8507aced5b8b8e11e44eca085dcc78688ac45b04c282
