AUX ls-dyna_smp_d_R13_1_0_centos79_intel190-Makefile.patch 2732 BLAKE2B b441a67609fc256417950475674e388f8344291d26f19d35204be57350ba53ed121334d216c8830c3e5521900920c1f8f6f4ff64b493b9efa70d0b31e9a5ec18 SHA512 d3abe4de30317685012168ae099e3a9d81b571f6d53c95e3de918e4a0f68626133c0ee1b32639a7dab1986b7c841775023c2949ed23bc32ed617a5fce0714ace
AUX ls-dyna_smp_s_R13_1_0_centos79_intel190-Makefile.patch 1995 BLAKE2B 6664b33a34ccbb42081eb5cf68271e174c66ea40c044dd33158b40a1b6c9990a9e82903863d1de5016943583c2c7366201f9ac7f061610fd0d904f895fa978e9 SHA512 767df61f8a88d0981c1e6562d966f159adf615a413b0879ab716c9fba6ceaa9f06efe402038996eaa45da9d75ff976389c59e2e51cfb4b633d4f1ccda305740f
DIST ls-dyna_smp_d_R13_1_0_centos79_intel190.usermat.tar.gz_extractor.sh 154505073 BLAKE2B b81358c32a4474e80543b1ee309094a798cc946ce83ffa7f2fa37d40ba8bcdaa7cb2bf6393cf6d3ebdf8bf0c1270b03ec46b0c94ac15f84d69fd585da469556b SHA512 8ad209801286c841634267b6a5eadbeff46a3c5b036d7dfffa8a4efc33ef15342eda5d48e42d07d2f0ee2214a5d6a55e1f1085976b740a74d09c16742c138227
DIST ls-dyna_smp_s_R13_1_0_centos79_intel190.usermat.tar.gz_extractor.sh 111485727 BLAKE2B 53c85818503e0ab08aa2ea08a4460a0859c5c9695560c07d2b4b0f033758470739fb465efda49c21a08eafd01b98dc522ed900ae1acefcbe81315492c8f699b7 SHA512 bd6ccd1ebe86b1b7be9c0e82e317770d84d1c18512b2d4fcc7f7b7ac68ae48f3c0957b6ad141d96faf19c1f46cedd025c89a88dbc649f15addabded4f961d2ea
EBUILD ls-dyna-13.1.0.ebuild 1743 BLAKE2B 9685e94beeb62afc931219b9280d8d7eb6e53b4f8397a33028222972f1251035a9a1db20b08f9eec99d26798e9db2111ba0127f94c26e0bac61dcaba259be733 SHA512 471ccd81922ea47ea7dfcbb392ae81be604fccbe9f25f32082559e8f34ec8f437a1279c0839ae910c47cef15676176711e46630dbd16d3b85cbcc8ba24df209a
MISC metadata.xml 302 BLAKE2B 702c9c159fd252687c6529a1d3a374ea8fef59665e0618fbd29cb396f1b72c1838ce66c30a5a2160f190dc2f6e977b5bfd428d9e3e271650ce43cc7bdfda35d2 SHA512 664d88155a383ffd496b0e2b8c0642f17c393eb95af04be60533994cb50f37a74b45edc1d8be6999ffb0e2540551af5143f3477e894401d3d8081fac7275f509
