DIST ls-dyna_smp_d_R13_1_0_centos79_intel190.tar.gz_extractor.sh 127414064 BLAKE2B d965b9181535278192440ae5795dd5cd136ffdb7bd99b241afdab78dcde33ee834e7d81e9ed6e0d6a8a9002b4112d85d52c41cb5d7a4a13bdb7a63c2d8b8699b SHA512 26e3cf66daaa4d8a17b66475fa0f02da5fcd19653c35aa8aeb710631705005d263f6348df6b34349a7479ecd80f2dfc6bff28d5b6ce9e5ff8f7e8a225fbc415c
DIST ls-dyna_smp_d_R13_1_1_centos79_intel190.tgz_extractor.sh 115505577 BLAKE2B 3e675a74cbf60594eaad1335ca7f251a1463b1016981d8c13216f1ae7ad78b5ca6cbc151cffa8093468380ceba3d89d9ba4a3ae3375c773f4bf15c26712b5c35 SHA512 f16d6e64edf39acca9bde4a7f0932d000d33c9a03427fb330cbadd136435229228a5fd4cfd77fee309652189821c5acec7292da6e0c8a33eb3ce90f005346839
DIST ls-dyna_smp_s_R13_1_0_centos79_intel190.tar.gz_extractor.sh 104813899 BLAKE2B 47a3f425aef131b178ccb3208d6a91da51036e995dd3064b910b4949a11eacbdc9ff9ff1b3ad5c0ffae5ec2b46f3a565a29ebab4c88a4b6b93d12a1cc51f1a7c SHA512 308c61eb33d2dac40225b93dd763002560c4574a58a83e1b22961757904e47215322f5733c36239b5bf39dea57f662efea3927d3f020537ac53fdb12c00e0597
DIST ls-dyna_smp_s_R13_1_1_centos79_intel190.tgz_extractor.sh 105859073 BLAKE2B 19f9a321757f299d8f1638b0566d601fc433fa8a5b10a19b17607f13f645a09e509ed8bcafbd79dd07c8a5e1f53943405178551f2dfda474473e42cd3b596346 SHA512 1d0f1b88e4bc3f01f5eed06d560e1020273ef7e314a720f844e8ef84cd93601dd14b982f790e38125641b8ce65e3edd925900a634699d7e68b2df85380ec7f6c
EBUILD ls-dyna-13.1.0.ebuild 1577 BLAKE2B b2e2fae378fd4fdbc2eb548e92c90185f4cd65508e9b6f498826755be6dfadcafa3b5e5e9e4b82477486d222709d83e667932d23cf5bbd2eeaa2d1785d2889ee SHA512 3543dc72c362e2071042889617bcf7ef403dcf4da5fbc4630b320311117e7dcae749c6bd858f6ee5cdacdb00b9bfc4e8b5a9d9ef875e4a6318d4965d9e860711
EBUILD ls-dyna-13.1.1.ebuild 1574 BLAKE2B b68f28971e34bf6c3c4653c0be23febe0287c726cea8917208102ef3985bf5eafd7312091339d93aa3fc6f2a575b6db26bf954242d0ad2d1e79502c8165e375f SHA512 9168a69fc9e158a2376f67f6db9f39507e02cd606520094b2e8c91cd9a788c7ac357395dc66651bbc94bc772d032f24cb58327a5ff03f057a9085eb41a19d900
MISC metadata.xml 302 BLAKE2B 702c9c159fd252687c6529a1d3a374ea8fef59665e0618fbd29cb396f1b72c1838ce66c30a5a2160f190dc2f6e977b5bfd428d9e3e271650ce43cc7bdfda35d2 SHA512 664d88155a383ffd496b0e2b8c0642f17c393eb95af04be60533994cb50f37a74b45edc1d8be6999ffb0e2540551af5143f3477e894401d3d8081fac7275f509
