DIST ls-dyna_smp_d_R11_0_0_x64_redhat56_ifort160.gz_extractor.sh 79432712 BLAKE2B f54a53a5e03f1e9494e4690202ed0364218881c167084fa75bd6a38e8deadf91c4eba2d2133f020f76c31af2c8662a8054f1fe8d65dcb5f961cd34444849d185 SHA512 5082ad153722584c6ba6506c73f6bb7b58ba1cd4ebbac9f2e0695fc74598a3c70df1231cc1df6b367dc025171d9b640b06ec092eea59226ff4782fc01c852530
DIST ls-dyna_smp_d_R11_1_0_x64_redhat65_ifort160_sse2.gz_extractor.sh 92574514 BLAKE2B fd8a9a8d85b9db2afdf86529d34c16540d5cde3bf48c85e0c23d98d86a9f8afe4b88c3ecb649cdb4ccbd4ceda0fde9aea1bba8ee399415cc00941b80cbcc5d3f SHA512 fe9e42d1e092024c75248e58219a79bc51c31598ef7c2b9f463ee3ca43c93dd5d817ef63f177d27ff3c4976f809a2c986853521116a62e5ec3c4c702d95a6a9f
DIST ls-dyna_smp_d_R11_2_0_x64_centos610_ifort160.tgz_extractor.sh 109084475 BLAKE2B 304dfb2568ea150faf1bd62d7dce0bf8c7f4ad4f5423f8b4080ad7f32d0249f657ae4d34f308031546381f096aeae434906a0324f7373a46ff472f9ecbec7f46 SHA512 b46f40296e4ea7ffd97c94318debf985c1c217785d1513fb7611699576fccac1666d62f09ec009f7a4f89dfa58bbd775045eff838ac7439b3a6a6ee9cb0c2915
DIST ls-dyna_smp_d_R11_2_1_x64_centos610_ifort160.tgz_extractor.sh 109101549 BLAKE2B 88a50dcadbdc57cb8513b9e4f54bab7de0da75a8bc3b89b6f5baf0a75822d8b7c440dd03755c8149dcd2853929de7aef0a26a70a87b893e41368ebe18b73009b SHA512 9aebdcd11c0e60e71308024b3ad6a9ecb56b4ec1cd6f8d2124bf53f41cc9698a8e058b2a64dbb7fca5f6453c00eb78d8ad36764ff5d8d30e3fc3092d169dc064
DIST ls-dyna_smp_d_R11_2_2_x64_centos610_ifort160.tgz_extractor.sh 109678054 BLAKE2B 83667b3910cf3c45fd64925d0acc963f4ea7621258c8e85c3a488356f7c39b06d50dec555d7fbc827d13e678a2b18579b71e6b9ac5838416534a62d42d1bbb00 SHA512 40d5e7904f71436d46bc577edf47cf543f82480e798fb08153abdaaea8f2a05f0cec250897ad5a8b0b84667a4cd31e891958aeccb48dad4642834ae58fccd8f9
DIST ls-dyna_smp_d_R12_0_0_x64_redhat65_ifort160.gz_extractor.sh 110861512 BLAKE2B bd6fd96b39a2dc2c410fe5121741cb61ad918d308072b77ab0c0f51c10366a82c5774a3f03807e057861fc69d2769de340164b940009c9ed8071f90a83d3f2b1 SHA512 372a8020300942901a3a84b150b77f855091892872fa562cd2e86b97ac24c157ff2ca391d25404f1a084e25a36cb36a513c84d3aa54d71ec2fe871712da80c8e
DIST ls-dyna_smp_d_R12_1_0_x64_centos610_ifort160.tar.gz_extractor.sh 119094756 BLAKE2B 576e29206a0ec0d1d1a1fd90a898a18c5bef51171a1b07f84aedd6b842369a99d492b6fc4aed372c5602ddf269bb31786ce258739a538b35b48c2cd6385164d1 SHA512 1328fe73e5cbe218b80a62e752b1b661fbaee14151f8314a7d0a55e25b117a33eb8fb5db6c77afe275aa4bf7c7e48cc64a7a04b0383608bf297382a319c6eca6
DIST ls-dyna_smp_d_R13_0_0_x64_centos610_ifort190.tgz_extractor.sh 125773052 BLAKE2B a9a4a6bf933de8bd73348565ccdd1fb52dbf276cee6b091b31f45f0a49230cf9b6a4d22719bfbb9098fcbe33e891337ec7e307ea4cda6ea7a12db529be4c4f42 SHA512 9d81283ebde53e564924678ffd6c3212f1109ecf25f32806f1ab4cbeae8c9a1df0edc0db529d8863f45736c03df389cf9e48cd810ee3d0ca8ee269304f668e19
DIST ls-dyna_smp_d_R13_1_0_centos79_intel190.tar.gz_extractor.sh 127414064 BLAKE2B d965b9181535278192440ae5795dd5cd136ffdb7bd99b241afdab78dcde33ee834e7d81e9ed6e0d6a8a9002b4112d85d52c41cb5d7a4a13bdb7a63c2d8b8699b SHA512 26e3cf66daaa4d8a17b66475fa0f02da5fcd19653c35aa8aeb710631705005d263f6348df6b34349a7479ecd80f2dfc6bff28d5b6ce9e5ff8f7e8a225fbc415c
DIST ls-dyna_smp_d_R13_1_1_centos79_intel190.tgz_extractor.sh 115505577 BLAKE2B 3e675a74cbf60594eaad1335ca7f251a1463b1016981d8c13216f1ae7ad78b5ca6cbc151cffa8093468380ceba3d89d9ba4a3ae3375c773f4bf15c26712b5c35 SHA512 f16d6e64edf39acca9bde4a7f0932d000d33c9a03427fb330cbadd136435229228a5fd4cfd77fee309652189821c5acec7292da6e0c8a33eb3ce90f005346839
EBUILD ls-dyna-11.0.0.ebuild 736 BLAKE2B d6b6ea6d05d5987f6a4809e3752f66d0c5469b833aa4346676ed2048d72f797955b2284c4694beadc54aaa90b6965b59aab3b2e39078d0a50041bdb0a454e551 SHA512 5913c7557a27ddc223f7d35c209e7051c0a70a807866098e2765cecf69994f1444545b245e4d16ba3efdaf9c75684441dc2621b68a8f0b761853f8390c561236
EBUILD ls-dyna-11.1.0.ebuild 778 BLAKE2B 85ca84ddaae143ceba8e68c726cd11c733806774c722cce0b6134192e7e883a6ce821f15ce4cabed39e3a4c36e709ce1fa6fc37638d3611fad3427bb7f9a2902 SHA512 04bbce7c1cebb96034bb4f48a156635b89daa99ef8d1887f7396daf376285d5920d8d2abd4a1fce9eff20d527ebb8b1116e67be5160389a4f75ed9871398e018
EBUILD ls-dyna-11.2.0.ebuild 909 BLAKE2B 9e8a1fbf5e0fb74f1db69f77c176412fdc874ae3a180cf4f0b373f8021b629eb0141d45000b7c360d8c1753c8e3d0236dcfd9569eea692482f89fa31f942b832 SHA512 199cd8cc3d5ad01ba7526c15dd6806d9710af55c0d961aca6fd8c496e9b713be549f7be5d2ead9ec7e6eacb798002d2a6c3aee3ec875f0484fa61dbbdd7acc4e
EBUILD ls-dyna-11.2.1.ebuild 909 BLAKE2B 9e8a1fbf5e0fb74f1db69f77c176412fdc874ae3a180cf4f0b373f8021b629eb0141d45000b7c360d8c1753c8e3d0236dcfd9569eea692482f89fa31f942b832 SHA512 199cd8cc3d5ad01ba7526c15dd6806d9710af55c0d961aca6fd8c496e9b713be549f7be5d2ead9ec7e6eacb798002d2a6c3aee3ec875f0484fa61dbbdd7acc4e
EBUILD ls-dyna-11.2.2.ebuild 909 BLAKE2B 9e8a1fbf5e0fb74f1db69f77c176412fdc874ae3a180cf4f0b373f8021b629eb0141d45000b7c360d8c1753c8e3d0236dcfd9569eea692482f89fa31f942b832 SHA512 199cd8cc3d5ad01ba7526c15dd6806d9710af55c0d961aca6fd8c496e9b713be549f7be5d2ead9ec7e6eacb798002d2a6c3aee3ec875f0484fa61dbbdd7acc4e
EBUILD ls-dyna-12.0.0.ebuild 736 BLAKE2B 745f64b69952c4138ac61674edb1f7574301e66f97d95fbc7f320ff43164d1b3532b52a13c29f3f915c4fd7c07b35effec69b0afdb7806a2ade44b56b1a48dad SHA512 ad98e20558a4b768a4b1aa3c045429c96ee158785f690e8a6eab3688feb70f7b069365c19d1553351c6065e6757355fb728d9e689316d837dd1713d504091929
EBUILD ls-dyna-12.1.0.ebuild 912 BLAKE2B 53ad7ae569173a3ed8deea94e697932b8c9f36b345c56b05f83c4c282cb6c1e2833cf315cc453cbe8caf4162b9b53ac8e38622a3704d64b9c3c3dacfc2dfef8a SHA512 ad96b9e0920bfd144a71b3933b765c875ae288a99a1efe1a643917f35171a8996718940e1f2cd021c69aa088b1e32ec2c18b48412842a3152c88f04283e78ea4
EBUILD ls-dyna-13.0.0.ebuild 909 BLAKE2B 5d128cf5023205f4e2a6b954aa9d3de54d72a7f5fe0dc458534fbd39d2d157c82cf3aa7684b9a913a97ab05da735077635a943860946f93a47eb408eeb7c7548 SHA512 87a192f57b34df6a852a4d6885c47c82bfd5e78e986e9c85ba12bef764d10b431427f43b59bea79502c7853c17c6612b2675cc7b657b5330d0dcb096d7fa6b9f
EBUILD ls-dyna-13.1.0.ebuild 989 BLAKE2B bd50e9526786732fa70c163704c3096efd0f16325287a1c5c2a6f7e930984aed0b166b2d8fa60ff30e206b273078d84b919eddfa5d53bd0944c277a4f6c9d2ed SHA512 c25384b605facad392a03666b0e8f7c487a1ae9fde74070bb3b575bb20514f3f9c420c6a8c42928b8bf15c5f2d4fa402a4d359ca7ea558c2b90d1889f05b1534
EBUILD ls-dyna-13.1.1.ebuild 897 BLAKE2B 9a00491b63d9aa4279aa0b33ab0c999dae1cd0d4dc0a0ad4237b1984eddd188b8d0892d3d4b60d9861cfd177d197f023d1f78fdaed812b23e970e3976ae55a04 SHA512 cbd5b6b459139beed07133d1f2fa9a6c225f9bb2ddcd4fffb6817a4826912ea053ec6232d8b2006a13cba040215a4da52dadce840f3453a347f9290618efa2cc
MISC metadata.xml 139 BLAKE2B b4a59c22790dfec3fbcfaea41ef363401766736b68a85bedae00e1944d0a848aa97104c2f34244c0fe7b6363029281f965fc1b3545301d341cda371eaa976274 SHA512 8be912ace7468a4396eb1da00a9785030a8ce35da4357a01591876a1056fd45e44da65de2af3e1eb0506ce6551714962c40c3ae5a3aefa2ad231de35af2519be
