DEFINED_PHASES=install prepare unpack
DESCRIPTION=A general-purpose finite element program
EAPI=7
HOMEPAGE=http://www.lstc.com/
KEYWORDS=~amd64
LICENSE=Clickwrap-SLA
RESTRICT=fetch mirror strip
SLOT=14.0.0
SRC_URI=http://ftp.lstc.com/user/ls-dyna/R14.0.0/linx.64/ls-dyna_smp_d_R14_0_0_x64_centos79_ifort190.tgz_extractor.sh
_md5_=a7cbd22508b39fae8f9786922bdcbb29
