DEFINED_PHASES=install unpack
DESCRIPTION=A general-purpose finite element program
EAPI=7
HOMEPAGE=http://www.lstc.com/
KEYWORDS=~amd64
LICENSE=Clickwrap-SLA
RESTRICT=fetch strip
SLOT=12.0.0
SRC_URI=http://ftp.lstc.com/user/ls-dyna/R12.0.0/linx.64/ls-dyna_smp_d_R12_0_0_x64_redhat65_ifort160.gz_extractor.sh
_md5_=b1665b188158b4a92ba3f37b7f5f0073
