DEFINED_PHASES=install prepare unpack
DESCRIPTION=A general-purpose finite element program
EAPI=7
HOMEPAGE=http://www.lstc.com/
KEYWORDS=~amd64
LICENSE=Clickwrap-SLA
RESTRICT=fetch strip
SLOT=12.1.0
SRC_URI=http://ftp.lstc.com/user/ls-dyna/R12.1.0/linx.64/ls-dyna_smp_d_R12_1_0_x64_centos610_ifort160.tar.gz_extractor.sh
_md5_=36d9cc10f299c53065466ea0fee62168
