DEFINED_PHASES=install prepare unpack
DESCRIPTION=A general-purpose finite element program
EAPI=7
HOMEPAGE=http://www.lstc.com/
KEYWORDS=~amd64
LICENSE=Clickwrap-SLA
RESTRICT=fetch mirror strip
SLOT=11.2.1
SRC_URI=http://ftp.lstc.com/user/ls-dyna/R11.2.1/linx.64/ls-dyna_smp_d_R11_2_1_x64_centos610_ifort160.tgz_extractor.sh
_md5_=c81830271a094a0dec0434f324df3592
