DEFINED_PHASES=install unpack
DESCRIPTION=A general-purpose finite element program
EAPI=7
HOMEPAGE=http://www.lstc.com/
KEYWORDS=~amd64
LICENSE=Clickwrap-SLA
RESTRICT=fetch mirror strip
SLOT=12.2.1
SRC_URI=http://ftp.lstc.com/user/ls-dyna/R12.2.1/linx.64/ls-dyna_smp_d_R12_2_1_x64_centos79_ifort160_sse2.tgz_extractor.sh
_md5_=8c482e6dc892ff7a0045aed11f1b0b91
