DEFINED_PHASES=install unpack
DESCRIPTION=A general-purpose finite element program
EAPI=7
HOMEPAGE=http://www.lstc.com/
KEYWORDS=~amd64
LICENSE=Clickwrap-SLA
RESTRICT=fetch strip
SLOT=13.1.0
SRC_URI=http://ftp.lstc.com/user/ls-dyna/R13.1.0/linx.64/ls-dyna_smp_d_R13_1_0_centos79_intel190.tar.gz_extractor.sh
_md5_=3761b0da64c97cc008752982f5e6c9c3
