DEFINED_PHASES=install prepare unpack
DESCRIPTION=A general-purpose finite element program
EAPI=7
HOMEPAGE=http://www.lstc.com/
KEYWORDS=~amd64
LICENSE=Clickwrap-SLA
RESTRICT=fetch strip
SLOT=13.1.1
SRC_URI=http://ftp.lstc.com/user/ls-dyna/R13.1.1/linx.64/ls-dyna_smp_d_R13_1_1_centos79_intel190.tgz_extractor.sh
_md5_=72cacac53bf3993b74bbb8f1654be3d4
