DEFINED_PHASES=install unpack
DESCRIPTION=A general-purpose finite element program
EAPI=7
HOMEPAGE=http://www.lstc.com/
KEYWORDS=~amd64
LICENSE=Clickwrap-SLA
RESTRICT=fetch mirror strip
SLOT=13.1.0
SRC_URI=http://ftp.lstc.com/user/ls-dyna/R13.1.0/linx.64/ls-dyna_smp_d_R13_1_0_centos79_intel190.tar.gz_extractor.sh
_md5_=0a3f28f72b9afcf71e236dc8722fa1f7
