DEFINED_PHASES=install unpack
DESCRIPTION=A general-purpose finite element program
EAPI=7
HOMEPAGE=http://www.lstc.com/
KEYWORDS=~amd64
LICENSE=Clickwrap-SLA
RESTRICT=fetch mirror strip
SLOT=11.0.0
SRC_URI=http://ftp.lstc.com/user/ls-dyna/R11.0.0/linx.64/ls-dyna_smp_d_R11_0_0_x64_redhat56_ifort160.gz_extractor.sh
_md5_=24c459ee337ce9d56bf7cb45e6bd0fdb
