DEFINED_PHASES=install postinst postrm prepare unpack
DESCRIPTION=Advanced Pre- and Post-Processor for LS-DYNA
EAPI=7
HOMEPAGE=http://www.lstc.com/
INHERIT=desktop xdg-utils
IUSE=doc
KEYWORDS=~amd64
LICENSE=LSPREPOST
SLOT=4.9
SRC_URI=https://ftp.lstc.com/anonymous/outgoing/lsprepost/4.9/linux64/lsprepost-4.9.7-common_gtk3-03Aug2022.tgz doc? ( https://ftp.lstc.com/anonymous/outgoing/lsprepost/4.9/doc/linux/Document.zip -> lsprepost-4.9-Document.zip https://ftp.lstc.com/anonymous/outgoing/lsprepost/4.9/doc/linux/Tutor.zip -> lsprepost-4.9-Tutor.zip )
_eclasses_=desktop	22952d8f27cac191d75529d4c38e6bfa	xdg-utils	fffb53a53cf17c9c0c998a3c0a590c7e
_md5_=e63e3e2008bbce3f6160383b64f4e6f0
