DEFINED_PHASES=install postinst postrm prepare unpack
DESCRIPTION=Advanced Pre- and Post-Processor for LS-DYNA
EAPI=7
HOMEPAGE=http://www.lstc.com/
INHERIT=desktop xdg-utils
IUSE=doc
KEYWORDS=~amd64
LICENSE=LSPREPOST
RESTRICT=strip
SLOT=4.10
SRC_URI=https://ftp.lstc.com/anonymous/outgoing/lsprepost/dev/linux64/lsprepost-4.10-common_gtk3-30Aug2022.tgz doc? ( https://ftp.lstc.com/anonymous/outgoing/lsprepost/dev/doc/linux/Document.zip -> lsprepost-4.9-Document.zip https://ftp.lstc.com/anonymous/outgoing/lsprepost/4.9/doc/linux/Tutor.zip -> lsprepost-4.9-Tutor.zip )
_eclasses_=desktop	22952d8f27cac191d75529d4c38e6bfa	xdg-utils	fffb53a53cf17c9c0c998a3c0a590c7e
_md5_=64701b28e6110d35567dc115022ff4cf
