DEFINED_PHASES=install unpack
DESCRIPTION=A general-purpose finite element program
EAPI=7
HOMEPAGE=http://www.lstc.com/
IUSE=cpu_flags_x86_sse2 cpu_flags_x86_avx2 cpu_flags_x86_avx512f
KEYWORDS=~amd64
LICENSE=Clickwrap-SLA
REQUIRED_USE=^^ ( cpu_flags_x86_sse2 cpu_flags_x86_avx2 cpu_flags_x86_avx512f )
RESTRICT=fetch mirror strip
SLOT=14.0.0
SRC_URI=cpu_flags_x86_avx2? ( http://ftp.lstc.com/user/mpp-dyna/R14.0.0/x86-64/ifort_190_avx2/MPP/ls-dyna_mpp_d_R14_0_0_x64_centos78_ifort190_avx2_intelmpi-2018.tgz_extractor.sh ) cpu_flags_x86_avx512f? ( http://ftp.lstc.com/user/mpp-dyna/R14.0.0/x86-64/ifort_190_avx512/MPP/ls-dyna_mpp_d_R14_0_0_x64_centos78_ifort190_avx512_intelmpi-2018.tgz_extractor.sh ) cpu_flags_x86_sse2? ( http://ftp.lstc.com/user/mpp-dyna/R14.0.0/x86-64/ifort_190_sse2/MPP/ls-dyna_mpp_d_R14_0_0_x64_centos78_ifort190_sse2_intelmpi-2018.tgz_extractor.sh )
_md5_=30f415f5408db6a2b98f94943c2efc21
