DEFINED_PHASES=install prepare unpack
DESCRIPTION=A general-purpose finite element program
EAPI=7
HOMEPAGE=http://www.lstc.com/
IUSE=cpu_flags_x86_sse2 cpu_flags_x86_avx2 cpu_flags_x86_avx512f
KEYWORDS=~amd64
LICENSE=Clickwrap-SLA
REQUIRED_USE=^^ ( cpu_flags_x86_sse2 cpu_flags_x86_avx2 cpu_flags_x86_avx512f )
RESTRICT=fetch strip
SLOT=11.2.0
SRC_URI=cpu_flags_x86_avx2? ( http://ftp.lstc.com/user/mpp-dyna/R11.2.0/x86-64/ifort_160_avx2/MPP/ls-dyna_mpp_d_R11_2_0_x64_centos610_ifort160_avx2_intelmpi-2018.tgz_extractor.sh ) cpu_flags_x86_avx512f? ( http://ftp.lstc.com/user/mpp-dyna/R11.2.0/x86-64/ifort_160_avx512/MPP/ls-dyna_mpp_d_R11_2_0_x64_centos610_ifort160_avx512_intelmpi-2018.tgz_extractor.sh ) cpu_flags_x86_sse2? ( http://ftp.lstc.com/user/mpp-dyna/R11.2.0/x86-64/ifort_160_sse2/MPP/ls-dyna_mpp_d_R11_2_0_x64_centos610_ifort160_sse2_intelmpi-2018.tgz_extractor.sh )
_md5_=3bf3febf7c0666c38be19e32c25c4e03
