DIST ls-dyna_mpp_d_R13_1_0_x64_centos78_ifort190_avx2_intelmpi-2018.tgz_extractor.sh 128003225 BLAKE2B 8bc1158f013c5d7af7495fc109d5fb482a178bb074d525ccd5848e5a540bf74a87f2125ee356b5c5b97f5b332aadaaecfa12889bc4e8fec17b5e282b1d27b617 SHA512 ad4e643fed024ae6fa0ef519e76cce2483e11e80f20d743a4320cae74d3781957c275aabd6ce95d6b643a89dd5849ac00ee193b5d44426f16f954d8af35b2acd
DIST ls-dyna_mpp_d_R13_1_0_x64_centos78_ifort190_avx512_intelmpi-2018.tgz_extractor.sh 133850674 BLAKE2B d2e654d50c661bb2c4a001399046879548225f8751a563a95dee0aaaf1f18d4f22de848627dadfdc029ba8bc59eb846d154851d752b944798b66914e71778266 SHA512 6d3b89d14775d7bc809fdc1f2527265013e6c30ac849bbfcff17f94f4b3d1a2186ef59de1926611af4507e2e5cce45392407b0b843db6423b58534a482a5016e
DIST ls-dyna_mpp_d_R13_1_0_x64_centos78_ifort190_sse2_intelmpi-2018.tgz_extractor.sh 126233043 BLAKE2B b2fce432efde808c569dc930fb573c2acd1c656a2d7fb343aeaefd0a0bb871b933855a5d69f4c79ed0d07bddbd0dc70e9da4dec95151f391f0bda5c365d238ac SHA512 65ae7de5d7331af85faf67c7610500a18f4aed25859f935c159f7780c7b959f0ce9bc9acc9128a93b86f9476f78c0351708f76ee80fe57fb88abcf6d0119847a
DIST ls-dyna_mpp_s_R13_1_0_x64_centos78_ifort190_avx2_intelmpi-2018.tgz_extractor.sh 91151585 BLAKE2B c7a9d9d6e4e0a579af0da7f46b9bc9613d4d54da7d910df69d3a6612e8946138846cb81b0ff2a64c1358d084ddd89d32fcabd1488a8cbfe0d880c26e1cc0366f SHA512 9e8e5c3bb357c062e097bcc4ce69411e773abe8bce1515c7f55df8f296babdbf8c36a459070c9405b326e1ef44e7487f170bae590d73273e8f1f1fd3faf88997
DIST ls-dyna_mpp_s_R13_1_0_x64_centos78_ifort190_avx512_intelmpi-2018.tgz_extractor.sh 95425998 BLAKE2B 6d0ff824294bdc662f85123d64b9eb9dbac52d08e67f5e289449ea16bfd5bb88b22e3b212ab1006a10d240d5d7fac3f48730957c5982b1265c65215ce805a214 SHA512 601e321e5080195a5190b861011665595634aa3acf533139e25b773e0eabec090192ffa7a9ec95e9885e7afaf59d8a5b3572258b05b98221066ecf665d149fab
DIST ls-dyna_mpp_s_R13_1_0_x64_centos78_ifort190_sse2_intelmpi-2018.tgz_extractor.sh 87695118 BLAKE2B abbc3d477d5eaa48c1def2e3051f63f31b05c7d893f1dc74143cd6c79c6f05569cb9847a580d21e0286aba9f533b9b5269a243397e2e9d80bac704bbf0910780 SHA512 7e3af16ea7f98e80ee5df0fca48cc64f792d059fbe2237709379ef74318a4c3f31d994b0c4502f63fbf8027473cd019d56854590c5ff78c07a9b41a083eeadb5
EBUILD mpp-dyna-bin-13.1.0.ebuild 2448 BLAKE2B 6de5fff8ea7f496b21a4fed72f22c4c776c1eac1c0447589395ecdb4ddf3620e8b9c7734a3aa18218253815fe6896c378e7eab3926ffaf2995ece720dbdc3bca SHA512 6c699957c17fe818531bc8d5e6a99f7b9f5af42a92fa110cf9dd39238ec05a237c20f3ee8c62f252bd5f3c564e62bd7d95c793a94e25ebd6f907c1e828a5b25a
MISC metadata.xml 302 BLAKE2B a186a2a78da44c358b9998ad6775026765ae5139b9991cadd38c83735672b792ef81d007fcbafa1d258803ba3f30b52a29c7a5c1f7b414499ecbb76e816c54ab SHA512 a3dd18abf641e29a5a3961657c4fed1b911816506fafb9fce26704718203f297eba97957baca3bfb80e67ce7af0b1dfe1aac93913c45e289ca13aff53fd1eadf
